<?xml version="1.0" encoding="UTF-8"?>

<!-- generated on 2024-07-23 01:46:47.699019 by randomTrips.py v1_20_0+0002-343658e7c64
<configuration>
    <net-file value="VictoriaMap.net.xml"/>
    <route-file value="VictoriaRoute.rou.xml"/>
    <random value="True"/>
    <end value="1000.0"/>
    <period value="6.66666666666667"/>
</configuration>
-->

<routes xmlns:xsi="http://www.w3.org/2001/XMLSchema-instance" xsi:noNamespaceSchemaLocation="http://sumo.dlr.de/xsd/routes_file.xsd">
    <trip id="0" depart="0.00" from="5055880#0" to="-4757950#5"/>
    <trip id="1" depart="6.67" from="4758173#0" to="27749556#0"/>
    <trip id="2" depart="13.33" from="-744210346" to="4290457#0"/>
    <trip id="3" depart="20.00" from="1011056828#1" to="-4757949#10"/>
    <trip id="4" depart="26.67" from="-476944849" to="1010821639#2"/>
    <trip id="5" depart="33.33" from="153751728#0" to="153751729#1"/>
    <trip id="6" depart="40.00" from="-1296311587" to="-422072375"/>
    <trip id="7" depart="46.67" from="476083651" to="-4290470#0"/>
    <trip id="8" depart="53.33" from="476941532" to="26741709#2"/>
    <trip id="9" depart="60.00" from="-1010819204" to="-1010771758#4"/>
    <trip id="10" depart="66.67" from="476254567" to="153751056#2"/>
    <trip id="11" depart="73.33" from="-4290445#4" to="476254558#0"/>
    <trip id="12" depart="80.00" from="-25865164#1" to="476944847#2"/>
    <trip id="13" depart="86.67" from="1202430694#2" to="323174968#3"/>
    <trip id="14" depart="93.33" from="-25401403#4" to="1294744456"/>
    <trip id="15" depart="100.00" from="-1011107982#1" to="-4757950#9"/>
    <trip id="16" depart="106.67" from="-141710497#1" to="-1011144739#1"/>
    <trip id="17" depart="113.33" from="24456971#0" to="-1010357578#1"/>
    <trip id="18" depart="120.00" from="25821516#6" to="-939015335#1"/>
    <trip id="19" depart="126.67" from="-153751207" to="-4794587#0"/>
    <trip id="20" depart="133.33" from="-1011107982#2" to="-25401403#3"/>
    <trip id="21" depart="140.00" from="1011871289#1" to="-153751505#5"/>
    <trip id="22" depart="146.67" from="-275868701#7" to="1010357576#2"/>
    <trip id="23" depart="153.33" from="-476949274#1" to="-1011049328#0"/>
    <trip id="24" depart="160.00" from="476046145#0" to="24456971#0"/>
    <trip id="25" depart="166.67" from="288396025#1" to="-1011050191#1"/>
    <trip id="26" depart="173.33" from="1271185258#0" to="-147354209#3"/>
    <trip id="27" depart="180.00" from="-1010357576#3" to="-133434836#0"/>
    <trip id="28" depart="186.67" from="-4290471" to="-640173874#0"/>
    <trip id="29" depart="193.33" from="1010403484#1" to="476949275#1"/>
    <trip id="30" depart="200.00" from="5055849#3" to="4757949#2"/>
    <trip id="31" depart="206.67" from="147354204" to="-1293791192"/>
    <trip id="32" depart="213.33" from="153751719#4" to="4758160"/>
    <trip id="33" depart="220.00" from="711584719" to="-153750974#1"/>
    <trip id="34" depart="226.67" from="-25821539#0" to="-35086110#0"/>
    <trip id="35" depart="233.33" from="-418711637#2" to="-153751388#2"/>
    <trip id="36" depart="240.00" from="-566159488#1" to="-1011145574#1"/>
    <trip id="37" depart="246.67" from="1096513569#1" to="153751193#1"/>
    <trip id="38" depart="253.33" from="1202430694#3" to="-149012548#1"/>
    <trip id="39" depart="260.00" from="364706726#1" to="288396025#0"/>
    <trip id="40" depart="266.67" from="-4757947#2" to="-147354209#4"/>
    <trip id="41" depart="273.33" from="153751042#2" to="-1009411564#1"/>
    <trip id="42" depart="280.00" from="-323174967#1" to="-275867911"/>
    <trip id="43" depart="286.67" from="1010771758#3" to="-476941533#7"/>
    <trip id="44" depart="293.33" from="-153751595" to="1010464548#1"/>
    <trip id="45" depart="300.00" from="-4757899#1" to="1009411565#0"/>
    <trip id="46" depart="306.67" from="-130957293#0" to="4758173#0"/>
    <trip id="47" depart="313.33" from="-35086110#1" to="614162718#5"/>
    <trip id="48" depart="320.00" from="476046141#0" to="-25401402#4"/>
    <trip id="49" depart="326.67" from="4290461#1" to="-476628401"/>
    <trip id="50" depart="333.33" from="-4757888#0" to="943473686"/>
    <trip id="51" depart="340.00" from="153751704" to="-153751459#1"/>
    <trip id="52" depart="346.67" from="476254567" to="-5059543#2"/>
    <trip id="53" depart="353.33" from="460667716" to="1010357575"/>
    <trip id="54" depart="360.00" from="1011145571" to="1292997444#2"/>
    <trip id="55" depart="366.67" from="-7910037#0" to="147354209#4"/>
    <trip id="56" depart="373.33" from="4290823#2" to="-1290828042#1"/>
    <trip id="57" depart="380.00" from="4757947#2" to="4490365#1"/>
    <trip id="58" depart="386.67" from="276017789#10" to="-1010771770"/>
    <trip id="59" depart="393.33" from="1292997444#2" to="275868702#1"/>
    <trip id="60" depart="400.00" from="418711635#2" to="4290460#3"/>
    <trip id="61" depart="406.67" from="460667717#0" to="1292997428#5"/>
    <trip id="62" depart="413.33" from="-4757888#2" to="130957293#2"/>
    <trip id="63" depart="420.00" from="-153750975#1" to="153751383"/>
    <trip id="64" depart="426.67" from="4794587#2" to="60592866"/>
    <trip id="65" depart="433.33" from="323174976#1" to="1010821640#0"/>
    <trip id="66" depart="440.00" from="-153751193#2" to="-288396025#11"/>
    <trip id="67" depart="446.67" from="153751388#1" to="4757950#5"/>
    <trip id="68" depart="453.33" from="-276017790#0" to="-153751193#1"/>
    <trip id="69" depart="460.00" from="-323174968#2" to="153751669#1"/>
    <trip id="70" depart="466.67" from="4757898#0" to="-374384808#0"/>
    <trip id="71" depart="473.33" from="25865163#7" to="4758173#2"/>
    <trip id="72" depart="480.00" from="288396023#1" to="1011871290"/>
    <trip id="73" depart="486.67" from="477472937" to="477472942"/>
    <trip id="74" depart="493.33" from="-153751362#0" to="-4290470#0"/>
    <trip id="75" depart="500.00" from="-996736365#4" to="476944847#0"/>
    <trip id="76" depart="506.67" from="-4290457#5" to="-288396025#12"/>
    <trip id="77" depart="513.33" from="1202430694#2" to="476628401"/>
    <trip id="78" depart="520.00" from="4758191#2" to="-1010771766#1"/>
    <trip id="79" depart="526.67" from="-5059543#2" to="-476941533#0"/>
    <trip id="80" depart="533.33" from="-4757888#1" to="217438147#0"/>
    <trip id="81" depart="540.00" from="153751288" to="1010819203#0"/>
    <trip id="82" depart="546.67" from="-4290457#3" to="-1010771758#0"/>
    <trip id="83" depart="553.33" from="1290828042#1" to="-476046141#2"/>
    <trip id="84" depart="560.00" from="442264623#2" to="-1010821639#0"/>
    <trip id="85" depart="566.67" from="22988488#1" to="1293791195"/>
    <trip id="86" depart="573.33" from="-1011049328#0" to="-153751459#1"/>
    <trip id="87" depart="580.00" from="276017789#6" to="4794587#1"/>
    <trip id="88" depart="586.67" from="153751340" to="4757948#0"/>
    <trip id="89" depart="593.33" from="-476628401" to="-1011871290"/>
    <trip id="90" depart="600.00" from="25401403#4" to="-147335495"/>
    <trip id="91" depart="606.67" from="-153751085" to="-1010771771#0"/>
    <trip id="92" depart="613.33" from="275868701#1" to="-153751371"/>
    <trip id="93" depart="620.00" from="4290445#2" to="4757886#1"/>
    <trip id="94" depart="626.67" from="153751791#0" to="1296311587"/>
    <trip id="95" depart="633.33" from="1292997428#7" to="476941533#8"/>
    <trip id="96" depart="640.00" from="60710855#0" to="380679312"/>
    <trip id="97" depart="646.67" from="-566881424#2" to="153751505#1"/>
    <trip id="98" depart="653.33" from="593513321#0" to="230601390"/>
    <trip id="99" depart="660.00" from="-1010771762#0" to="153751224#2"/>
    <trip id="100" depart="666.67" from="-4757950#11" to="153751611#1"/>
    <trip id="101" depart="673.33" from="-1010771758#2" to="1293791184"/>
    <trip id="102" depart="680.00" from="4758161#0" to="-323174963#1"/>
    <trip id="103" depart="686.67" from="1011056828#0" to="-153751042#2"/>
    <trip id="104" depart="693.33" from="-1010771768#0" to="-477472948"/>
    <trip id="105" depart="700.00" from="86579487#1" to="-1293791196#0"/>
    <trip id="106" depart="706.67" from="1202430694#2" to="477472954"/>
    <trip id="107" depart="713.33" from="-1010458981" to="1293791184"/>
    <trip id="108" depart="720.00" from="153751224#1" to="477472943#0"/>
    <trip id="109" depart="726.67" from="-1296311580#1" to="-153751704"/>
    <trip id="110" depart="733.33" from="323174962#1" to="-422072378#1"/>
    <trip id="111" depart="740.00" from="479259737" to="323384260"/>
    <trip id="112" depart="746.67" from="153751006#0" to="153751705#2"/>
    <trip id="113" depart="753.33" from="-153751045#0" to="4758173#3"/>
    <trip id="114" depart="760.00" from="-1010464550#1" to="153750971"/>
    <trip id="115" depart="766.67" from="1010357578#1" to="-4290459#2"/>
    <trip id="116" depart="773.33" from="323377645#0" to="5059543#3"/>
    <trip id="117" depart="780.00" from="-27749556#2" to="-153751273"/>
    <trip id="118" depart="786.67" from="-153751612" to="153751372"/>
    <trip id="119" depart="793.33" from="248507676" to="1271185258#0"/>
    <trip id="120" depart="800.00" from="-476628402" to="1010357576#2"/>
    <trip id="121" depart="806.67" from="-4290457#9" to="1010821643"/>
    <trip id="122" depart="813.33" from="26741711#2" to="4290444#1"/>
    <trip id="123" depart="820.00" from="460667719#1" to="380679311#2"/>
    <trip id="124" depart="826.67" from="-5055850#2" to="1010771770"/>
    <trip id="125" depart="833.33" from="25821516#3" to="1011049727#0"/>
    <trip id="126" depart="840.00" from="-5059543#1" to="153751292#1"/>
    <trip id="127" depart="846.67" from="26741710#0" to="4290460#2"/>
    <trip id="128" depart="853.33" from="-153751384#1" to="-153751384#0"/>
    <trip id="129" depart="860.00" from="4288791#0" to="4757895#0"/>
    <trip id="130" depart="866.67" from="248507647" to="-108401270"/>
    <trip id="131" depart="873.33" from="476046145#4" to="-4490365#0"/>
    <trip id="132" depart="880.00" from="-4757950#3" to="-288396024#0"/>
    <trip id="133" depart="886.67" from="-185565003#1" to="-1011057649"/>
    <trip id="134" depart="893.33" from="147354209#3" to="288396025#1"/>
    <trip id="135" depart="900.00" from="4758191#2" to="4757899#0"/>
    <trip id="136" depart="906.67" from="-1292997428#3" to="-1011871289#0"/>
    <trip id="137" depart="913.33" from="-1292997428#6" to="-476941532"/>
    <trip id="138" depart="920.00" from="-25401403#4" to="-476944847#0"/>
    <trip id="139" depart="926.67" from="1010771758#2" to="476941534#0"/>
    <trip id="140" depart="933.33" from="-5055847#0" to="942436686#1"/>
    <trip id="141" depart="940.00" from="288396025#5" to="-86579826"/>
    <trip id="142" depart="946.67" from="156129402#2" to="-4757906#0"/>
    <trip id="143" depart="953.33" from="4757902" to="4794583#1"/>
    <trip id="144" depart="960.00" from="-288396025#6" to="25821516#4"/>
    <trip id="145" depart="966.67" from="1010771758#0" to="5055849#1"/>
    <trip id="146" depart="973.33" from="4290463#0" to="133434836#0"/>
    <trip id="147" depart="980.00" from="-153751505#3" to="1293791197#0"/>
    <trip id="148" depart="986.67" from="153751510#1" to="-133434836#1"/>
    <trip id="149" depart="993.33" from="-336588950#1" to="-323174968#0"/>
    <trip id="150" depart="1000.00" from="-288396023#3" to="-156129401"/>
</routes>
