<?xml version="1.0" encoding="UTF-8"?>

<!-- generated on 2024-07-14 23:34:28.049745 by randomTrips.py v1_20_0+0002-343658e7c64
<configuration>
    <net-file value=".\VictoriaMap.net.xml"/>
    <route-file value="VictoriaRoute.rou.xml"/>
    <length value="True"/>
    <end value="600.0"/>
    <period value="1.0"/>
</configuration>
-->

<routes xmlns:xsi="http://www.w3.org/2001/XMLSchema-instance" xsi:noNamespaceSchemaLocation="http://sumo.dlr.de/xsd/routes_file.xsd">
    <trip id="0" depart="0.00" from="153751486#2" to="-1010771763"/>
    <trip id="1" depart="1.00" from="-418711635#8" to="-26741710#0"/>
    <trip id="2" depart="2.00" from="276017790#1" to="22988488#1"/>
    <trip id="3" depart="3.00" from="4757954" to="-147335495"/>
    <trip id="4" depart="4.00" from="-566159489" to="-1010771767"/>
    <trip id="5" depart="5.00" from="-25865163#1" to="1290821780"/>
    <trip id="6" depart="6.00" from="-1010771765#0" to="-161137746"/>
    <trip id="7" depart="7.00" from="153751557#1" to="147354203"/>
    <trip id="8" depart="8.00" from="-25865163#4" to="153751217#1"/>
    <trip id="9" depart="9.00" from="4290461#1" to="-1010357576#3"/>
    <trip id="10" depart="10.00" from="4290460#2" to="25821550"/>
    <trip id="11" depart="11.00" from="-4757894#1" to="-153751379"/>
    <trip id="12" depart="12.00" from="5066515#4" to="-4757902"/>
    <trip id="13" depart="13.00" from="-147354208" to="-149012548#0"/>
    <trip id="14" depart="14.00" from="4757888#1" to="153751320#1"/>
    <trip id="15" depart="15.00" from="4290461#0" to="275867915"/>
    <trip id="16" depart="16.00" from="132165965" to="640173874#1"/>
    <trip id="17" depart="17.00" from="-475877417" to="147354209#4"/>
    <trip id="18" depart="18.00" from="4290823#1" to="153751372"/>
    <trip id="19" depart="19.00" from="4757894#1" to="153751056#1"/>
    <trip id="20" depart="20.00" from="25821543" to="-1011057649"/>
    <trip id="21" depart="21.00" from="-275868701#6" to="-4290468#0"/>
    <trip id="22" depart="22.00" from="-132165960" to="-27749556#0"/>
    <trip id="23" depart="23.00" from="-149012647" to="-4290456"/>
    <trip id="24" depart="24.00" from="153751461#0" to="-4758470#0"/>
    <trip id="25" depart="25.00" from="-4757952#2" to="-25401403#5"/>
    <trip id="26" depart="26.00" from="-35153247" to="4794588#1"/>
    <trip id="27" depart="27.00" from="153751533#0" to="153751348"/>
    <trip id="28" depart="28.00" from="-153751505#2" to="275867915"/>
    <trip id="29" depart="29.00" from="-153751459#2" to="-4794583#3"/>
    <trip id="30" depart="30.00" from="923019026#0" to="153751517"/>
    <trip id="31" depart="31.00" from="147354209#1" to="25340638"/>
    <trip id="32" depart="32.00" from="46146300" to="35086110#0"/>
    <trip id="33" depart="33.00" from="-275868702#1" to="-1010771770"/>
    <trip id="34" depart="34.00" from="-4388576" to="-418711635#7"/>
    <trip id="35" depart="35.00" from="-25401403#6" to="5055846"/>
    <trip id="36" depart="36.00" from="4757904#1" to="-4757888#2"/>
    <trip id="37" depart="37.00" from="153751611#2" to="-5055849#2"/>
    <trip id="38" depart="38.00" from="476941533#8" to="1010464553"/>
    <trip id="39" depart="39.00" from="-34940330#1" to="-323174962#1"/>
    <trip id="40" depart="40.00" from="149012573" to="-35153247"/>
    <trip id="41" depart="41.00" from="153751075" to="4758161#0"/>
    <trip id="42" depart="42.00" from="-5055842" to="-25865163#3"/>
    <trip id="43" depart="43.00" from="996736365#5" to="1292997428#5"/>
    <trip id="44" depart="44.00" from="-147354207" to="-1011107982#0"/>
    <trip id="45" depart="45.00" from="-153750979" to="153751459#1"/>
    <trip id="46" depart="46.00" from="422072376#1" to="-7910037#0"/>
    <trip id="47" depart="47.00" from="-1290821780" to="-4794584"/>
    <trip id="48" depart="48.00" from="966807164" to="132165965"/>
    <trip id="49" depart="49.00" from="640173874#1" to="4757892#1"/>
    <trip id="50" depart="50.00" from="-1010403483" to="26741709#2"/>
    <trip id="51" depart="51.00" from="22983744" to="133434836#0"/>
    <trip id="52" depart="52.00" from="-35153247" to="153751533#0"/>
    <trip id="53" depart="53.00" from="-153750984" to="-966807164"/>
    <trip id="54" depart="54.00" from="1010357575" to="5059535#2"/>
    <trip id="55" depart="55.00" from="4757904#1" to="-35263108#1"/>
    <trip id="56" depart="56.00" from="1011145572#0" to="-153751557#0"/>
    <trip id="57" depart="57.00" from="476941533#5" to="4757897"/>
    <trip id="58" depart="58.00" from="-4290468#0" to="153751510#1"/>
    <trip id="59" depart="59.00" from="153751302" to="-153751371"/>
    <trip id="60" depart="60.00" from="323174962#1" to="133434836#6"/>
    <trip id="61" depart="61.00" from="35263108#1" to="132165966#1"/>
    <trip id="62" depart="62.00" from="-1009406760#1" to="-4757893#0"/>
    <trip id="63" depart="63.00" from="-1010771758#4" to="479259119#0"/>
    <trip id="64" depart="64.00" from="4757947#0" to="4290823#1"/>
    <trip id="65" depart="65.00" from="-4290494" to="-1013898545"/>
    <trip id="66" depart="66.00" from="4757906#1" to="5055849#2"/>
    <trip id="67" depart="67.00" from="-137332483#0" to="1011049727#1"/>
    <trip id="68" depart="68.00" from="-1292997444#2" to="323174962#1"/>
    <trip id="69" depart="69.00" from="323174968#0" to="-153751193#1"/>
    <trip id="70" depart="70.00" from="1010771764#1" to="147354209#3"/>
    <trip id="71" depart="71.00" from="-35086110#0" to="4757899#0"/>
    <trip id="72" depart="72.00" from="-575836107" to="-25401403#6"/>
    <trip id="73" depart="73.00" from="132165966#1" to="275867915"/>
    <trip id="74" depart="74.00" from="-185565003#0" to="-466290441#0"/>
    <trip id="75" depart="75.00" from="966807164" to="153751611#2"/>
    <trip id="76" depart="76.00" from="-89295571" to="1293791196#0"/>
    <trip id="77" depart="77.00" from="-153751045#2" to="-275868701#10"/>
    <trip id="78" depart="78.00" from="-4757894#0" to="153751207"/>
    <trip id="79" depart="79.00" from="-276017789#4" to="-25865163#4"/>
    <trip id="80" depart="80.00" from="-1293791189#0" to="153751468#2"/>
    <trip id="81" depart="81.00" from="-275868702#1" to="475896808"/>
    <trip id="82" depart="82.00" from="4757894#0" to="-1293791189#0"/>
    <trip id="83" depart="83.00" from="-27749551" to="217438141#1"/>
    <trip id="84" depart="84.00" from="-25821516#1" to="-153751217#4"/>
    <trip id="85" depart="85.00" from="5055841" to="153751041"/>
    <trip id="86" depart="86.00" from="1010771762#0" to="380679312"/>
    <trip id="87" depart="87.00" from="4290461#0" to="-153751707#4"/>
    <trip id="88" depart="88.00" from="-149012545" to="-923019026#2"/>
    <trip id="89" depart="89.00" from="-60592866" to="1010771765#0"/>
    <trip id="90" depart="90.00" from="275868701#0" to="22983744"/>
    <trip id="91" depart="91.00" from="8009584" to="-149012573"/>
    <trip id="92" depart="92.00" from="-5055846" to="-4757903"/>
    <trip id="93" depart="93.00" from="4757894#1" to="-323174963#1"/>
    <trip id="94" depart="94.00" from="-153751707#2" to="1010357578#0"/>
    <trip id="95" depart="95.00" from="-566159489" to="-4290457#4"/>
    <trip id="96" depart="96.00" from="-30176226" to="476944852"/>
    <trip id="97" depart="97.00" from="-966807164" to="4757892#1"/>
    <trip id="98" depart="98.00" from="147354203" to="-1011145571"/>
    <trip id="99" depart="99.00" from="996736365#8" to="442264617#0"/>
    <trip id="100" depart="100.00" from="614162718#1" to="477472941"/>
    <trip id="101" depart="101.00" from="4757888#4" to="-153751468#0"/>
    <trip id="102" depart="102.00" from="1010819205#1" to="-25821516#1"/>
    <trip id="103" depart="103.00" from="-5055844#1" to="-108401271#0"/>
    <trip id="104" depart="104.00" from="-475877418" to="7969626#0"/>
    <trip id="105" depart="105.00" from="-35086110#0" to="380679311#0"/>
    <trip id="106" depart="106.00" from="1010357576#3" to="-7969626#0"/>
    <trip id="107" depart="107.00" from="5066515#4" to="966807164"/>
    <trip id="108" depart="108.00" from="147354208" to="26488855"/>
    <trip id="109" depart="109.00" from="-153751372" to="-4290471"/>
    <trip id="110" depart="110.00" from="614162718#1" to="153751061"/>
    <trip id="111" depart="111.00" from="132165967" to="27749551"/>
    <trip id="112" depart="112.00" from="-108401270" to="153751085"/>
    <trip id="113" depart="113.00" from="1011145574#1" to="4757888#2"/>
    <trip id="114" depart="114.00" from="-153751380#1" to="55060427#0"/>
    <trip id="115" depart="115.00" from="-132165960" to="-153751630"/>
    <trip id="116" depart="116.00" from="153751217#3" to="22983744"/>
    <trip id="117" depart="117.00" from="-276017790#3" to="-153751061"/>
    <trip id="118" depart="118.00" from="4757952#0" to="-323174962#1"/>
    <trip id="119" depart="119.00" from="153751217#3" to="153751372"/>
    <trip id="120" depart="120.00" from="-55060427#0" to="153751085"/>
    <trip id="121" depart="121.00" from="1293791191" to="4794588#0"/>
    <trip id="122" depart="122.00" from="-22988488#1" to="26488854"/>
    <trip id="123" depart="123.00" from="-27749556#0" to="-5055849#2"/>
    <trip id="124" depart="124.00" from="169264299" to="-4290823#0"/>
    <trip id="125" depart="125.00" from="-442264623#0" to="27749556#2"/>
    <trip id="126" depart="126.00" from="-1293791191" to="1010464552"/>
    <trip id="127" depart="127.00" from="996736365#7" to="966807164"/>
    <trip id="128" depart="128.00" from="-1293791192" to="-25482947"/>
    <trip id="129" depart="129.00" from="-35086110#0" to="4794587#0"/>
    <trip id="130" depart="130.00" from="4757947#3" to="4757904#1"/>
    <trip id="131" depart="131.00" from="-4757952#0" to="-153751380#1"/>
    <trip id="132" depart="132.00" from="442264617#1" to="25924571"/>
    <trip id="133" depart="133.00" from="153751335" to="8047442"/>
    <trip id="134" depart="134.00" from="153751595" to="-1010357578#2"/>
    <trip id="135" depart="135.00" from="4290468#0" to="-4290823#0"/>
    <trip id="136" depart="136.00" from="153751719#0" to="5055842"/>
    <trip id="137" depart="137.00" from="-153751224#0" to="-153751042#1"/>
    <trip id="138" depart="138.00" from="-153750975#0" to="149012545"/>
    <trip id="139" depart="139.00" from="-418711635#4" to="153751338#1"/>
    <trip id="140" depart="140.00" from="26741708#1" to="-217438160#1"/>
    <trip id="141" depart="141.00" from="153751459#1" to="-35263781#1"/>
    <trip id="142" depart="142.00" from="1010821640#0" to="475896808"/>
    <trip id="143" depart="143.00" from="4700037" to="-147354208"/>
    <trip id="144" depart="144.00" from="-60592866" to="-4290445#5"/>
    <trip id="145" depart="145.00" from="-1009411565#0" to="323384259#3"/>
    <trip id="146" depart="146.00" from="153751468#0" to="-35086110#1"/>
    <trip id="147" depart="147.00" from="276149817#2" to="147354209#3"/>
    <trip id="148" depart="148.00" from="-737188338#1" to="-1010357581#0"/>
    <trip id="149" depart="149.00" from="-1293791199" to="4757906#1"/>
    <trip id="150" depart="150.00" from="476046145#1" to="147354203"/>
    <trip id="151" depart="151.00" from="442264621" to="153751085"/>
    <trip id="152" depart="152.00" from="-153751320#1" to="-153751193#0"/>
    <trip id="153" depart="153.00" from="-4290820" to="4758173#0"/>
    <trip id="154" depart="154.00" from="4288791#1" to="4757892#1"/>
    <trip id="155" depart="155.00" from="4758470#1" to="-25401403#6"/>
    <trip id="156" depart="156.00" from="-30176226" to="-153750975#0"/>
    <trip id="157" depart="157.00" from="35263781#1" to="4757947#1"/>
    <trip id="158" depart="158.00" from="-5055849#2" to="153751372"/>
    <trip id="159" depart="159.00" from="-153751372" to="4794583#0"/>
    <trip id="160" depart="160.00" from="4757896#0" to="711584206#1"/>
    <trip id="161" depart="161.00" from="4290462#0" to="4757904#1"/>
    <trip id="162" depart="162.00" from="-1010771762#0" to="276017789#5"/>
    <trip id="163" depart="163.00" from="-4757891" to="4794583#1"/>
    <trip id="164" depart="164.00" from="4290457#1" to="4757894#0"/>
    <trip id="165" depart="165.00" from="4290462#0" to="-415301040#1"/>
    <trip id="166" depart="166.00" from="390146207" to="-153750986"/>
    <trip id="167" depart="167.00" from="4757903" to="4757891"/>
    <trip id="168" depart="168.00" from="-25924571" to="4290467#1"/>
    <trip id="169" depart="169.00" from="1010458982" to="-442264627#0"/>
    <trip id="170" depart="170.00" from="422072379#1" to="-276017789#4"/>
    <trip id="171" depart="171.00" from="-1010771762#0" to="-153751719#1"/>
    <trip id="172" depart="172.00" from="-4757889#0" to="4757894#0"/>
    <trip id="173" depart="173.00" from="60710855#0" to="-4290457#4"/>
    <trip id="174" depart="174.00" from="153751494#1" to="-5055877#0"/>
    <trip id="175" depart="175.00" from="7910037#0" to="132296460#0"/>
    <trip id="176" depart="176.00" from="5055844#2" to="-153751042#1"/>
    <trip id="177" depart="177.00" from="614162718#7" to="-153751557#0"/>
    <trip id="178" depart="178.00" from="593111372#0" to="-364706725"/>
    <trip id="179" depart="179.00" from="-153750975#2" to="-966807164"/>
    <trip id="180" depart="180.00" from="275867915" to="-4757888#1"/>
    <trip id="181" depart="181.00" from="153751292#1" to="1292997442"/>
    <trip id="182" depart="182.00" from="-476941533#9" to="153751056#1"/>
    <trip id="183" depart="183.00" from="-323174968#0" to="26425717#3"/>
    <trip id="184" depart="184.00" from="-1009411563" to="477472938"/>
    <trip id="185" depart="185.00" from="132165966#1" to="26741708#1"/>
    <trip id="186" depart="186.00" from="277281621" to="217438147#1"/>
    <trip id="187" depart="187.00" from="-4757949#10" to="-1293791185#2"/>
    <trip id="188" depart="188.00" from="153751719#1" to="-4757895#3"/>
    <trip id="189" depart="189.00" from="-4388576" to="46146300"/>
    <trip id="190" depart="190.00" from="26741709#5" to="-4290823#0"/>
    <trip id="191" depart="191.00" from="-4290821#1" to="-5066515#2"/>
    <trip id="192" depart="192.00" from="-5055846" to="-4290471"/>
    <trip id="193" depart="193.00" from="-153751085" to="-744210346"/>
    <trip id="194" depart="194.00" from="5055847#1" to="230601391#3"/>
    <trip id="195" depart="195.00" from="476046132#0" to="153751358"/>
    <trip id="196" depart="196.00" from="-4290468#0" to="147354208"/>
    <trip id="197" depart="197.00" from="-1009406760#1" to="-4290467#1"/>
    <trip id="198" depart="198.00" from="-758742682" to="153751075"/>
    <trip id="199" depart="199.00" from="153751599" to="1010771762#0"/>
    <trip id="200" depart="200.00" from="-966807164" to="-25821516#0"/>
    <trip id="201" depart="201.00" from="1010771762#0" to="4758191#1"/>
    <trip id="202" depart="202.00" from="4288791#1" to="-153751494#1"/>
    <trip id="203" depart="203.00" from="-133434849" to="1293791191"/>
    <trip id="204" depart="204.00" from="153751403#0" to="-4757899#2"/>
    <trip id="205" depart="205.00" from="4290468#0" to="27749556#2"/>
    <trip id="206" depart="206.00" from="169284554#0" to="-275868701#10"/>
    <trip id="207" depart="207.00" from="-161137746" to="-1010771762#0"/>
    <trip id="208" depart="208.00" from="-288396025#16" to="1010819200"/>
    <trip id="209" depart="209.00" from="4757889#0" to="-1293791192"/>
    <trip id="210" depart="210.00" from="-5059543#0" to="153751461#1"/>
    <trip id="211" depart="211.00" from="-153751719#2" to="25821516#6"/>
    <trip id="212" depart="212.00" from="1011057649" to="-30176226"/>
    <trip id="213" depart="213.00" from="153751612" to="-1010357575"/>
    <trip id="214" depart="214.00" from="288396023#0" to="323384259#1"/>
    <trip id="215" depart="215.00" from="-153750975#0" to="-8009584"/>
    <trip id="216" depart="216.00" from="-153751533#0" to="5066515#2"/>
    <trip id="217" depart="217.00" from="1292997428#7" to="-1011144739#0"/>
    <trip id="218" depart="218.00" from="-30176226" to="46146300"/>
    <trip id="219" depart="219.00" from="1010357578#2" to="4290445#3"/>
    <trip id="220" depart="220.00" from="153751727" to="86579487#0"/>
    <trip id="221" depart="221.00" from="153751217#4" to="5055850#3"/>
    <trip id="222" depart="222.00" from="4757954" to="153751355"/>
    <trip id="223" depart="223.00" from="26741709#4" to="1258793098"/>
    <trip id="224" depart="224.00" from="4290823#1" to="147354208"/>
    <trip id="225" depart="225.00" from="4758191#1" to="276149817#0"/>
    <trip id="226" depart="226.00" from="1010771763" to="-336588950#0"/>
    <trip id="227" depart="227.00" from="-288396025#7" to="153751505#6"/>
    <trip id="228" depart="228.00" from="323174968#0" to="130957293#3"/>
    <trip id="229" depart="229.00" from="153751379" to="-4290445#1"/>
    <trip id="230" depart="230.00" from="-130957293#0" to="-4290462#1"/>
    <trip id="231" depart="231.00" from="-415301040#0" to="-4757891"/>
    <trip id="232" depart="232.00" from="132165966#1" to="-153751251#2"/>
    <trip id="233" depart="233.00" from="-276017789#5" to="257838722"/>
    <trip id="234" depart="234.00" from="25821550" to="-1290821781"/>
    <trip id="235" depart="235.00" from="-5055850#1" to="141710497#0"/>
    <trip id="236" depart="236.00" from="-5066515#2" to="-25401402#5"/>
    <trip id="237" depart="237.00" from="-55060427#1" to="475896808"/>
    <trip id="238" depart="238.00" from="153751075" to="25821516#1"/>
    <trip id="239" depart="239.00" from="4757892#1" to="323174968#1"/>
    <trip id="240" depart="240.00" from="-476628401" to="-1010357576#0"/>
    <trip id="241" depart="241.00" from="-4757903" to="288396024#1"/>
    <trip id="242" depart="242.00" from="4757891" to="5055880#1"/>
    <trip id="243" depart="243.00" from="-55060427#0" to="277281621"/>
    <trip id="244" depart="244.00" from="133434843#2" to="153751319#1"/>
    <trip id="245" depart="245.00" from="-25865163#4" to="-25865163#3"/>
    <trip id="246" depart="246.00" from="-8047442" to="-1010771766#0"/>
    <trip id="247" depart="247.00" from="-4757892#1" to="248507647"/>
    <trip id="248" depart="248.00" from="-5055847#3" to="-153751461#0"/>
    <trip id="249" depart="249.00" from="1010771758#4" to="-153751193#1"/>
    <trip id="250" depart="250.00" from="153751355" to="-1010771765#0"/>
    <trip id="251" depart="251.00" from="-4794588#0" to="153750975#2"/>
    <trip id="252" depart="252.00" from="-1010771765#0" to="153751533#1"/>
    <trip id="253" depart="253.00" from="-153751224#1" to="1010771759"/>
    <trip id="254" depart="254.00" from="-1011145572#0" to="-4794583#3"/>
    <trip id="255" depart="255.00" from="-25401403#6" to="-4757894#0"/>
    <trip id="256" depart="256.00" from="323174962#1" to="-4794583#3"/>
    <trip id="257" depart="257.00" from="288396024#1" to="4290823#1"/>
    <trip id="258" depart="258.00" from="-323174963#1" to="-133434836#3"/>
    <trip id="259" depart="259.00" from="-1010771758#3" to="133434836#6"/>
    <trip id="260" depart="260.00" from="996736365#8" to="-4757948#2"/>
    <trip id="261" depart="261.00" from="153751557#1" to="35927891#1"/>
    <trip id="262" depart="262.00" from="153751561" to="288396025#10"/>
    <trip id="263" depart="263.00" from="5055880#1" to="-169284554#0"/>
    <trip id="264" depart="264.00" from="-1010771758#4" to="-153751362#1"/>
    <trip id="265" depart="265.00" from="-153751079#1" to="217438147#0"/>
    <trip id="266" depart="266.00" from="153750940" to="-25821550"/>
    <trip id="267" depart="267.00" from="25401403#6" to="323174976#0"/>
    <trip id="268" depart="268.00" from="-153751486#2" to="153751348"/>
    <trip id="269" depart="269.00" from="27749556#0" to="-153751042#1"/>
    <trip id="270" depart="270.00" from="4290469#1" to="593111372#0"/>
    <trip id="271" depart="271.00" from="-153750975#2" to="-1010771763"/>
    <trip id="272" depart="272.00" from="-4290823#1" to="230601391#3"/>
    <trip id="273" depart="273.00" from="55060427#0" to="-5055849#2"/>
    <trip id="274" depart="274.00" from="26425717#4" to="-1296311586"/>
    <trip id="275" depart="275.00" from="25340638" to="153751459#1"/>
    <trip id="276" depart="276.00" from="-149012650" to="323384264"/>
    <trip id="277" depart="277.00" from="4757889#1" to="153751292#1"/>
    <trip id="278" depart="278.00" from="-153751056#1" to="7910037#1"/>
    <trip id="279" depart="279.00" from="380679310#3" to="-4757947#3"/>
    <trip id="280" depart="280.00" from="-744210346" to="-476941533#9"/>
    <trip id="281" depart="281.00" from="1011871289#1" to="-4757904#1"/>
    <trip id="282" depart="282.00" from="4757889#0" to="4290470#0"/>
    <trip id="283" depart="283.00" from="-153750974#1" to="55060427#0"/>
    <trip id="284" depart="284.00" from="153751459#2" to="4290821#1"/>
    <trip id="285" depart="285.00" from="25865163#3" to="-966807164"/>
    <trip id="286" depart="286.00" from="276017789#5" to="593483107#1"/>
    <trip id="287" depart="287.00" from="-35927891#0" to="4290460#4"/>
    <trip id="288" depart="288.00" from="132165966#1" to="1011048896"/>
    <trip id="289" depart="289.00" from="-7969626#1" to="275868701#1"/>
    <trip id="290" depart="290.00" from="-35263781#1" to="4757888#1"/>
    <trip id="291" depart="291.00" from="4290823#2" to="-147335495"/>
    <trip id="292" depart="292.00" from="4757948#0" to="-30176222"/>
    <trip id="293" depart="293.00" from="1010464552" to="153751349"/>
    <trip id="294" depart="294.00" from="-475877419" to="-1010771765#0"/>
    <trip id="295" depart="295.00" from="4757889#1" to="-153751595"/>
    <trip id="296" depart="296.00" from="-25401403#6" to="4288791#1"/>
    <trip id="297" depart="297.00" from="-4757894#1" to="4757904#1"/>
    <trip id="298" depart="298.00" from="257838722" to="-4290445#5"/>
    <trip id="299" depart="299.00" from="-1010357581#0" to="5055849#2"/>
    <trip id="300" depart="300.00" from="-137332483#0" to="26741709#1"/>
    <trip id="301" depart="301.00" from="1010821640#1" to="288396025#9"/>
    <trip id="302" depart="302.00" from="25340638" to="153751557#2"/>
    <trip id="303" depart="303.00" from="1011048897" to="422072374#2"/>
    <trip id="304" depart="304.00" from="-147354209#0" to="-25865163#6"/>
    <trip id="305" depart="305.00" from="25340638" to="-448754108"/>
    <trip id="306" depart="306.00" from="153751056#3" to="1010819198"/>
    <trip id="307" depart="307.00" from="131680882" to="-8009584"/>
    <trip id="308" depart="308.00" from="277281630" to="-4757895#3"/>
    <trip id="309" depart="309.00" from="25821516#2" to="-422072378#0"/>
    <trip id="310" depart="310.00" from="-323174962#1" to="-153751075"/>
    <trip id="311" depart="311.00" from="-153751707#5" to="-153751061"/>
    <trip id="312" depart="312.00" from="132165965" to="323174962#1"/>
    <trip id="313" depart="313.00" from="-153751611#3" to="-25821543"/>
    <trip id="314" depart="314.00" from="1010819202#1" to="275867912"/>
    <trip id="315" depart="315.00" from="744210346" to="131680882"/>
    <trip id="316" depart="316.00" from="-4290444#1" to="-153750928#0"/>
    <trip id="317" depart="317.00" from="-153751719#2" to="-276017789#4"/>
    <trip id="318" depart="318.00" from="-153751557#1" to="-1010464549#0"/>
    <trip id="319" depart="319.00" from="132165965" to="-4290445#1"/>
    <trip id="320" depart="320.00" from="711584206#1" to="149012545"/>
    <trip id="321" depart="321.00" from="25401403#6" to="-153751193#0"/>
    <trip id="322" depart="322.00" from="4757899#1" to="1011145572#0"/>
    <trip id="323" depart="323.00" from="4757903" to="153751042#1"/>
    <trip id="324" depart="324.00" from="1010771759" to="-996736365#8"/>
    <trip id="325" depart="325.00" from="-153751599" to="-1011145572#0"/>
    <trip id="326" depart="326.00" from="5055847#1" to="1010819205#1"/>
    <trip id="327" depart="327.00" from="4290471" to="-5055878"/>
    <trip id="328" depart="328.00" from="-1293791193" to="153751461#1"/>
    <trip id="329" depart="329.00" from="-1011145577#0" to="-153751338#1"/>
    <trip id="330" depart="330.00" from="152775568" to="-442264623#0"/>
    <trip id="331" depart="331.00" from="966807164" to="-153751056#3"/>
    <trip id="332" depart="332.00" from="323174963#2" to="153751338#5"/>
    <trip id="333" depart="333.00" from="422072374#2" to="-275868701#2"/>
    <trip id="334" depart="334.00" from="1293791191" to="1010357581#0"/>
    <trip id="335" depart="335.00" from="-966807164" to="4757892#1"/>
    <trip id="336" depart="336.00" from="938718308" to="-442264627#0"/>
    <trip id="337" depart="337.00" from="153751355" to="153751348"/>
    <trip id="338" depart="338.00" from="276149817#2" to="5055849#2"/>
    <trip id="339" depart="339.00" from="-25401403#1" to="-25401403#6"/>
    <trip id="340" depart="340.00" from="153751707#0" to="-153751379"/>
    <trip id="341" depart="341.00" from="-153751510#1" to="-1296311581"/>
    <trip id="342" depart="342.00" from="-1009411564#1" to="1010357581#0"/>
    <trip id="343" depart="343.00" from="153751217#1" to="-4290469#1"/>
    <trip id="344" depart="344.00" from="-276017789#5" to="26425717#0"/>
    <trip id="345" depart="345.00" from="25821516#5" to="1010458982"/>
    <trip id="346" depart="346.00" from="248507682" to="476944852"/>
    <trip id="347" depart="347.00" from="415301040#0" to="153751388#0"/>
    <trip id="348" depart="348.00" from="153751707#2" to="4794587#2"/>
    <trip id="349" depart="349.00" from="-60710855#2" to="147354203"/>
    <trip id="350" depart="350.00" from="153751533#0" to="476046132#0"/>
    <trip id="351" depart="351.00" from="4290822" to="-1293791191"/>
    <trip id="352" depart="352.00" from="-153751468#2" to="-4490365#0"/>
    <trip id="353" depart="353.00" from="27749556#2" to="153750994#1"/>
    <trip id="354" depart="354.00" from="-4290457#4" to="-153751085"/>
    <trip id="355" depart="355.00" from="248507742#1" to="25865163#2"/>
    <trip id="356" depart="356.00" from="5055849#0" to="1106519395#1"/>
    <trip id="357" depart="357.00" from="1011056828#1" to="-132296460#0"/>
    <trip id="358" depart="358.00" from="-1010821639#2" to="-939015335#0"/>
    <trip id="359" depart="359.00" from="-46146300" to="-323174967#0"/>
    <trip id="360" depart="360.00" from="-147354207" to="566159488#1"/>
    <trip id="361" depart="361.00" from="442264623#3" to="153751042#1"/>
    <trip id="362" depart="362.00" from="5059535#0" to="996736365#8"/>
    <trip id="363" depart="363.00" from="169264299" to="-422072374#2"/>
    <trip id="364" depart="364.00" from="-1010821639#3" to="288396025#2"/>
    <trip id="365" depart="365.00" from="1010771760" to="153751649"/>
    <trip id="366" depart="366.00" from="476941533#9" to="-153751595"/>
    <trip id="367" depart="367.00" from="153751079#0" to="153751494#1"/>
    <trip id="368" depart="368.00" from="1011049328#1" to="-147354207"/>
    <trip id="369" depart="369.00" from="-4757899#2" to="-4757898#2"/>
    <trip id="370" depart="370.00" from="161137746" to="4757891"/>
    <trip id="371" depart="371.00" from="-4757889#1" to="25482947"/>
    <trip id="372" depart="372.00" from="-4290457#3" to="5055847#3"/>
    <trip id="373" depart="373.00" from="4290462#1" to="147354209#3"/>
    <trip id="374" depart="374.00" from="1010357576#2" to="-4757888#2"/>
    <trip id="375" depart="375.00" from="-46146300" to="60710855#2"/>
    <trip id="376" depart="376.00" from="-5055847#3" to="1293791191"/>
    <trip id="377" depart="377.00" from="89295575#0" to="153751707#5"/>
    <trip id="378" depart="378.00" from="132165967" to="-566159489"/>
    <trip id="379" depart="379.00" from="-153751703" to="-4758173#2"/>
    <trip id="380" depart="380.00" from="288396025#7" to="153751388#1"/>
    <trip id="381" depart="381.00" from="30176226" to="-217438160#1"/>
    <trip id="382" depart="382.00" from="141710497#1" to="477472951#1"/>
    <trip id="383" depart="383.00" from="-89295571" to="25821550"/>
    <trip id="384" depart="384.00" from="-153751056#1" to="640173874#1"/>
    <trip id="385" depart="385.00" from="153751302" to="-288396025#16"/>
    <trip id="386" depart="386.00" from="-153751384#0" to="147354209#3"/>
    <trip id="387" depart="387.00" from="147354203" to="-147354209#0"/>
    <trip id="388" depart="388.00" from="942741320" to="476254571"/>
    <trip id="389" depart="389.00" from="1010464547" to="-153751056#1"/>
    <trip id="390" depart="390.00" from="442264617#0" to="1013898546"/>
    <trip id="391" depart="391.00" from="26741707" to="1292997428#3"/>
    <trip id="392" depart="392.00" from="-418711635#8" to="4388576"/>
    <trip id="393" depart="393.00" from="7910037#0" to="-30176222"/>
    <trip id="394" depart="394.00" from="147354203" to="-4794588#0"/>
    <trip id="395" depart="395.00" from="477472941" to="1292997428#0"/>
    <trip id="396" depart="396.00" from="4757947#0" to="4757894#0"/>
    <trip id="397" depart="397.00" from="-418711635#8" to="418711635#8"/>
    <trip id="398" depart="398.00" from="-5059543#1" to="4794588#0"/>
    <trip id="399" depart="399.00" from="1013898545" to="4290468#0"/>
    <trip id="400" depart="400.00" from="-4290444#1" to="-4290822"/>
    <trip id="401" depart="401.00" from="153751079#1" to="996736365#7"/>
    <trip id="402" depart="402.00" from="1010821643" to="-153751335"/>
    <trip id="403" depart="403.00" from="132165966#1" to="-4757947#0"/>
    <trip id="404" depart="404.00" from="147354203" to="141710535"/>
    <trip id="405" depart="405.00" from="1010357576#3" to="-4757892#0"/>
    <trip id="406" depart="406.00" from="-153751705#2" to="25821543"/>
    <trip id="407" depart="407.00" from="153750994#0" to="-27749556#1"/>
    <trip id="408" depart="408.00" from="336588955" to="-1011049727#0"/>
    <trip id="409" depart="409.00" from="277281630" to="25924602#1"/>
    <trip id="410" depart="410.00" from="4290462#0" to="-5055468#0"/>
    <trip id="411" depart="411.00" from="153751719#1" to="4290468#0"/>
    <trip id="412" depart="412.00" from="7910037#0" to="1011856171"/>
    <trip id="413" depart="413.00" from="-1010819205#1" to="1132600851#0"/>
    <trip id="414" depart="414.00" from="153751193#0" to="4757897"/>