<?xml version="1.0" encoding="UTF-8"?>

<!-- generated on 2024-09-10 23:05:59.318210 by randomTrips.py v1_20_0+0002-343658e7c64
<configuration>
    <net-file value="VictoriaMap.net.xml"/>
    <route-file value="./lowdensity/lowRound3.rou.xml"/>
    <random value="True"/>
    <end value="1000.0"/>
    <period value="20.0"/>
</configuration>
-->

<!-- generated on 2024-09-10 23:05:59 by Eclipse SUMO duarouter Version 1.20.0
<configuration xmlns:xsi="http://www.w3.org/2001/XMLSchema-instance" xsi:noNamespaceSchemaLocation="http://sumo.dlr.de/xsd/duarouterConfiguration.xsd">

    <input>
        <net-file value="VictoriaMap.net.xml"/>
        <route-files value="trips.trips.xml"/>
    </input>

    <output>
        <output-file value="./lowdensity/lowRound3.rou.xml"/>
        <alternatives-output value="NUL"/>
    </output>

    <time>
        <begin value="0"/>
        <end value="1000.0"/>
    </time>

    <report>
        <no-warnings value="true"/>
        <ignore-errors value="true"/>
        <no-step-log value="true"/>
    </report>

</configuration>
-->

<routes xmlns:xsi="http://www.w3.org/2001/XMLSchema-instance" xsi:noNamespaceSchemaLocation="http://sumo.dlr.de/xsd/routes_file.xsd">
    <vehicle id="0" depart="0.00">
        <route edges="-5055880#1 5055880#1 5055877#0 5055877#1 288396025#7 288396025#8 288396025#9 288396025#10 288396025#11 276149817#2 476255693 476255676 4290461#0 4290461#1 476280067 476280066 26741709#0 26741709#1 26741709#2 26741709#3 26741709#4 26741709#5 26741709#6 276148851 185565009 185565010#0 185565010#1 185565010#2 185565010#3 479259737 275810359 4700037 1096513570 257838722 131680882 153751348 737187601 211848136#0 211848136#1 480372301 153751482#0 153751482#1 -153751468#3 -153751468#2 -153751468#1 -153751468#0 -1010464553 1010464551#0 1010464551#1"/>
    </vehicle>
    <vehicle id="1" depart="20.00">
        <route edges="132296460#0 132296460#1 -25401402#6 -25401402#5 1010357574#2 1010357574#3 5059543#0 5059543#1 5059543#2 5059543#3 288396025#3 288396025#4 288396025#5 288396025#6 288396025#7 288396025#8 288396025#9 288396025#10 288396025#11 288396025#12 288396025#13 288396025#14 288396025#15 288396025#16 288396025#17 288396025#18 476944854#0 476944854#1 374384808#0 374384808#1 374384808#2 374384808#3 374384808#4 374384808#5 374384808#6 476944852 442264627#0 442264627#1 476944850#0 476944850#1 476944850#2 476944847#0 476944847#1 476944847#2 1106519395#0 1106519395#1 24456971#0 24456971#1 476949275#0 476949275#1 -476949274#1 -476949274#0 -230601391#3 -230601391#2 -230601391#1 -230601391#0 -943473686 -185565003#1 -185565003#0 -1293791184 -276148849#1 -276148849#0 -1293791185#2 -1293791185#1 -1293791185#0 -1293791186 -1293791187 -1293791189#1 -1293791189#0 -1293791188 -60949089#1 -60949089#0 -1293791191 -1293791190 -153751557#2 153751224#1 153751224#2 153751224#3 422072374#2 1296311592 1293791198#0"/>
    </vehicle>
    <vehicle id="2" depart="40.00">
        <route edges="-153751707#0 323175003#5 323175003#0 323175003#1 323175003#2 323175003#3 323175003#4 153751707#0 153751707#1 153751707#2 323174968#1 323174968#2 323174968#3 640173874#0 640173874#1 942436686#0 942436686#1 942436686#2 133434843#0 133434843#1 133434843#2 133434843#3 133434843#4 217438147#0 217438147#1 403543529 -1010771769#1 -1010771769#0 -217438141#1 -217438141#0 -4290460#5 -4290460#4 -4290460#3 -4290460#2 -4290460#1 -4290460#0 4290459#0 4290459#1 4290459#2 476944849 476944848#0 476944848#1 217438160#0 217438160#1 217438160#2 1271185258#0 1271185258#1 380679310#0 380679310#1 380679310#2 380679310#3 1294744456 248507657 442264617#0 442264617#1 248507676"/>
    </vehicle>
    <vehicle id="3" depart="60.00">
        <route edges="-4757895#1 -4757895#0 -4757898#2 -4757898#1 -4757898#0 1010771762#0 1010771762#1 939015334 758742682 939040303 476046141#0 476046141#1 476046141#2 476046138 1229215656 422072376#0 422072376#1 422072375 1296311580#0 1296311580#1 1296311581 1296311582 1296311584 1296311583 1296311585 1296311586 1296311587 1296311588 422072374#0 422072374#1 422072374#2 1296311592 1293791198#0 1293791198#1 475877419 1293791197#0 1293791197#1 -475877418 -1293791196#1 -1293791196#0 -1293791195 -475877420 -1293791199 1010821641 1010821643 1010821642 153751494#0 153751494#1 1010821640#0"/>
    </vehicle>
    <vehicle id="4" depart="80.00">
        <route edges="277281621 153751352 153751350 153751355 275867914 131680889 1096513569#0 1096513569#1 4757885 230601390 26741711#0 26741711#1 26741711#2 26741711#3 26741711#4 26741711#5 614162718#0 614162718#1 614162718#2 614162718#3 614162718#4 614162718#5 614162718#6 614162718#7 275867910 476265008 476265012 442264617#0 442264617#1 248507676 -442264623#5 -442264623#4 -442264623#3 -442264623#2 -442264623#1 -442264623#0 -374384808#6 -374384808#5 -374384808#4 -374384808#3 -374384808#2"/>
    </vehicle>
    <vehicle id="5" depart="100.00">
        <route edges="-4757950#6 -4757950#5 -4757950#4 -4757950#3 -4757950#2 -4757950#1 -4757950#0 4757949#0 4757949#1 4757949#2 4757949#3 4757949#4 4757949#5 4757949#6 4757949#7 4757949#8 4757949#9 4757949#10 4757949#11 1011056827#0 1011056827#1 4757948#0 -4757947#3 -418711637#3 -418711637#2 -418711637#1 -418711637#0 -25482947 442264623#0 442264623#1 442264623#2 442264623#3 442264623#4 442264623#5 442264621 476255681 476255673 1202430694#0 1202430694#1 1202430694#2 1202430694#3 1202430694#4 25865163#0 25865163#1 25865163#2 25865163#3 25865163#4 25865163#5 25865163#6 25865163#7 -25865163#7 -25865163#6 -25865163#5"/>
    </vehicle>
    <vehicle id="6" depart="120.00">
        <route edges="-323384260 -323384259#0 -4290470#2 -4290470#1 -4290470#0 147354209#1 147354209#2 -137332483#1 -137332483#0 4794583#2 4794583#3 25924602#2 1292997429 1011145575#0 1011145575#1 1011145574#0 1011145574#1 1011145573 1011145572#0 1011145572#1 1011145571 -566159488#1 -566159488#0 -566159489 -132165960 -438082909 -60641695 -275867911 60641712 -476083652"/>
    </vehicle>
    <vehicle id="7" depart="140.00">
        <route edges="-4290468#0 4290468#0 4290468#1 -1011145577#0 4418533#0 4418533#1 380679312 248507680 26741709#0 26741709#1 26741709#2 26741709#3 26741709#4 26741709#5 26741709#6 -479259119#1 -479259119#0 -737188338#1 -737188338#0 -26741710#1 -26741710#0 -566881424#2 -566881424#1 -566881424#0 -943473686 -185565003#1 -185565003#0 -1293791184 -276148849#1 -276148849#0 -1293791185#2 -1293791185#1 -1293791185#0 -1293791186 -1293791187 -1293791189#1 -1293791189#0 -1293791188 -60949089#1 -60949089#0 -1293791191 -1293791190 -1293791193 -1293791192 -1293791194 -475877417 -475877418 -1293791196#1 -1293791196#0 -1293791195 -475877420 -1293791199 1010821641 1010821643 1010821642 153751494#0 153751494#1 -153751217#4 -153751217#3 -153751217#2"/>
    </vehicle>
    <vehicle id="8" depart="160.00">
        <route edges="-35153247 -1010357577 1010357577 35153247 1010357579 1010357576#0 1010357576#1 1010357576#2 1010357576#3 1010357575 288396025#4 288396025#5 288396025#6 288396025#7 288396025#8 288396025#9 288396025#10 288396025#11 288396025#12 288396025#13 288396025#14 288396025#15 288396025#16 288396025#17 288396025#18 476944854#0 476944854#1 55060427#0 55060427#1 133434849 -4757948#0 -1011056827#1 -1011056827#0 -4757949#11 -4757949#10 -4757949#9 -4757949#8 -4757949#7 -4757949#6 -4757949#5 -4757949#4 -4757949#3 -4757949#2 -4757949#1 -4757949#0 4757950#0 4757950#1 4757950#2 4757950#3 4757950#4 4757950#5 -4757950#5 -4757950#4"/>
    </vehicle>
    <vehicle id="9" depart="180.00">
        <route edges="-1010771769#1 -1010771769#0 1010771769#0 1010771769#1 -403543529 -217438147#1 4758173#0 4758173#1 4758173#2 4758160 -4758161#1"/>
    </vehicle>
    <vehicle id="10" depart="200.00">
        <route edges="22988488#0 22988488#1 5066515#3 5066515#4 133434836#0 -133434836#0 1011056827#0 1011056827#1 4757948#0 -4757947#3 -4757947#2 -4757947#1 4758191#1 4758191#2 1013122851 476944853 442264627#0 442264627#1 476944850#0 476944850#1 476944850#2 476944847#0 476944847#1 476944847#2 1106519395#0 1106519395#1 24456971#0 24456971#1 476949275#0 476949275#1 -476949274#1 -476949274#0 -230601391#3 -230601391#2 -230601391#1 -230601391#0 -943473686 -185565003#1 -185565003#0 -1293791184 -276148849#1 -276148849#0 -1293791185#2 -1293791185#1 -1293791185#0 -1293791186 -1293791187 -1293791189#1 -1293791189#0 -1293791188 -60949089#1 -60949089#0 -1293791191 -1293791190 -1293791193 -1293791192 -1293791194 -475877417 -475877418 -1293791196#1 -1293791196#0 -1293791195 -475877420 -1293791199 -477472937 -422072378#1 -422072378#0 -477472951#1 -477472951#0 -477472957 -477472958#1 -477472958#0 -1011107983#2 -1011107983#1 -1011107983#0 -1011107982#2 -1011107982#1 -153751320#2 -153751320#1 -153751320#0"/>
    </vehicle>
    <vehicle id="11" depart="220.00">
        <route edges="-25401403#8 -25401403#7 -25401403#6 -25401403#5 -25401403#4 -25401403#3 -25401403#2 -25401403#1 -25401403#0 -25401402#6 -25401402#5 1010357574#2 1010357574#3 5059543#0 5059543#1 5059543#2 5059543#3 288396025#3 288396025#4 288396025#5 288396025#6 288396025#7 288396025#8 288396025#9 288396025#10 288396025#11 276149817#2 476255693 476255676 4290461#0 4290461#1 26741708#0 26741708#1 1200090036 -4290463#2 -4290463#1 -4290463#0 1011145577#0 1011145577#1 1292997428#0 153751292#0 153751292#1"/>
    </vehicle>
    <vehicle id="12" depart="240.00">
        <route edges="153751719#5 1293791198#1 475877419 1293791197#0 1293791197#1 475877417 1293791194 1293791192 1293791193 1293791190 1293791191 60949089#0 60949089#1 1293791188 1293791189#0 1293791189#1 -60592866 60592865#0 60592865#1 230601390 26741711#0 26741711#1 26741711#2 26741711#3 26741711#4 26741711#5 614162718#0 614162718#1 614162718#2 614162718#3 614162718#4 614162718#5 614162718#6 614162718#7 275867910 476265008 26741707 26741708#0 4290462#0 4290462#1 -4290462#1"/>
    </vehicle>
    <vehicle id="13" depart="260.00">
        <route edges="-153751229 -153751384#1 -153751384#0 153751517 -153751630 4794588#1 -1011145574#1 -1011145574#0 -1011145575#1 -1011145575#0 -1292997429 -25924602#2 -25924602#1 -25924602#0 -1292997428#8 -1292997428#7 -1292997428#6 -1292997428#5 -1292997428#4 -1292997428#3 -1292997428#2 -1292997428#1 -1292997428#0 -1011145577#1 -1011145577#0 4418533#0 4418533#1 380679312 476280069 476280068#0 476280068#1 476265006 380679311#0 380679311#1 380679311#2 -217438160#2 -217438160#1 -217438160#0 -476944848#1 -476944848#0 -476944849 -4290459#2 -4290459#1 -4290459#0 -476944850#2 -476944850#1 -476944850#0 -442264627#1 -442264627#0 -476944853 -1013122851 -4758191#2 -4758191#1 4757947#1"/>
    </vehicle>
    <vehicle id="15" depart="300.00">
        <route edges="-1011107982#1 1011107982#1 1011107982#2 1011107983#0 1011107983#1 1011107983#2 477472958#0 477472958#1 477472957 477472952#0 477472952#1 422072379#0 422072379#1 422072379#2 475896809#0 475896809#1 475896808 60641714 480372301 966009654 275867911 60641695 -60641695 -275867911 60641712 60641734 476083651 277281621 475896810#0 475896810#1 1011856171 275867912"/>
    </vehicle>
    <vehicle id="16" depart="320.00">
        <route edges="923019026#0 923019026#1 923019026#2 -4794587#2 -4794587#1 -4794587#0 996736365#0 996736365#1 996736365#2 996736365#3 996736365#4 996736365#5 996736365#6 996736365#7 996736365#8 276017789#0 276017789#1 276017789#2 276017789#3 276017789#4 276017789#5 276017789#6 276017789#7 276017789#8 276017789#9 276017789#10 -25865164#1 -25865164#0 -476941532 -25865163#7 -25865163#6 -25865163#5 -25865163#4 -25865163#3 -25865163#2 -25865163#1 -25865163#0 -1202430694#4 -1202430694#3 -1202430694#2 -1202430694#1 -1202430694#0 -476255673 -476255681 -442264621 -442264623#5 -442264623#4 -442264623#3 -442264623#2 -442264623#1 -442264623#0 25482947 418711637#0 418711637#1 418711637#2 418711637#3 -4757947#2 -4757947#1 -4757947#0 -1011049328#1 -1011049328#0 217438141#0 217438141#1 1010771769#0 1010771769#1 4757888#0 4757888#1 4757888#2 4757888#3 4757888#4 -1010458982 -4757891 -1010771764#1 -1010771764#0"/>
    </vehicle>
    <vehicle id="17" depart="340.00">
        <route edges="-1010819206 -153751207 -1293791191 -1293791190 -1293791193 -1293791192 -1293791194 -475877417 -475877418 -1293791196#1 -1293791196#0 -1293791195 -475877420 -1293791199 -477472937 -422072378#1 -422072378#0 460667719#0 460667719#1 422072379#0 422072379#1 422072379#2 475896809#0 475896809#1 475896808 60641714 480372301 966009654 275867911 60641695 -60641695 -275867911 60641712 60641734 476083651 277281621 475896810#0 475896810#1 1011856171 153751340 153751338#4 153751338#5"/>
    </vehicle>
    <vehicle id="18" depart="360.00">
        <route edges="153751006#1 -153751006#1 -153751006#0 -418711635#0 -4288791#1 -4288791#0 -1298279125 476941534#0 476941534#1 476941534#2 476941534#3 476941533#0 476941533#1 476941533#2 476941533#3 476941533#4 476941533#5 476941533#6 476941533#7 476941533#8 476941533#9 476941533#10 288396025#0 288396025#1 288396025#2 288396025#3 288396025#4 288396025#5 288396025#6 288396025#7 288396025#8 288396025#9 288396025#10 288396025#11 288396025#12 288396025#13 288396025#14 288396025#15 288396025#16 288396025#17 288396025#18 476944854#0 476944854#1 374384808#0 374384808#1 374384808#2"/>
    </vehicle>
    <vehicle id="19" depart="380.00">
        <route edges="-147354209#3 -147354209#2 35263781#0 35263781#1 1009411565#0 1009411565#1 1010464547 4290469#0 4290469#1 4290469#2 1009411563 -25865163#4 -25865163#3 -25865163#2 -25865163#1 -25865163#0 -1202430694#4 -1202430694#3 -1202430694#2 -1202430694#1 -1202430694#0 -476255673 -476255681 -442264621 -442264623#5 -442264623#4 -442264623#3 -442264623#2 -442264623#1 -442264623#0 25482947 418711637#0 418711637#1 418711637#2 418711637#3 4757947#3 -4757948#0 -1011056827#1 -1011056827#0 -4757949#11 -4757949#10 -4757949#9 -4757949#8 -4757949#7 -4757949#6 -4757949#5 -4757949#4 -4757949#3 -4757949#2 -4757949#1 -4757949#0 -942436686#2 -942436686#1 -942436686#0 -640173874#1 -640173874#0 -60710855#2 -60710855#1 -60710855#0 60710855#0"/>
    </vehicle>
    <vehicle id="20" depart="400.00">
        <route edges="217438141#0 -217438141#0 1011049328#0 1011049328#1 4758194#0 4758194#1 -4758194#1 -4758194#0"/>
    </vehicle>
    <vehicle id="21" depart="420.00">
        <route edges="-422072375 -422072376#1 -422072376#0 -1229215656 -476046138 132165966#0 132165966#1 132165967 711584207 226324141#0 226324141#1 24456973 737188337 711584206#0 711584206#1 -1106519395#1 -1106519395#0 -476944847#2 -476944847#1 -476944847#0 -476944850#2 -476944850#1 -476944850#0 -442264627#1 -442264627#0 -476944852 442264623#0 442264623#1 442264623#2 442264623#3 442264623#4 442264623#5 442264621 476255681 476255673 1202430694#0 1202430694#1 1202430694#2 1202430694#3 1202430694#4 25865163#0 25865163#1 25865163#2 -4290467#2 -323384264 -27749556#0"/>
    </vehicle>
    <vehicle id="22" depart="440.00">
        <route edges="996736365#0 996736365#1 996736365#2 996736365#3 996736365#4 996736365#5 996736365#6 996736365#7 996736365#8 276017789#0 276017789#1 276017789#2 276017789#3 276017789#4 276017789#5 276017789#6 276017789#7 276017789#8 276017789#9 276017789#10 -25865164#1 -25865164#0 -476941532 -25865163#7 -25865163#6 -25865163#5 -25865163#4 -25865163#3 -25865163#2 -25865163#1 -25865163#0 -1202430694#4 -1202430694#3 -1202430694#2 -1202430694#1 -1202430694#0 -476255673 -476255681 -442264621 -442264623#5 -442264623#4 -442264623#3 -442264623#2 -442264623#1 -442264623#0 25482947 418711637#0 418711637#1 418711637#2 418711637#3 4757947#3 -4757948#0 -1011056827#1 -1011056827#0 -4757949#11 -4757949#10 -4757949#9 -4757949#8 -4757949#7 -4757949#6 -4757949#5 -4757949#4 -4757949#3 -4757949#2 -4757949#1 -4757949#0 4757950#0 4757950#1"/>
    </vehicle>
    <vehicle id="23" depart="460.00">
        <route edges="476949275#0 476949275#1 -476949274#1 -476949274#0 -230601391#3 -230601391#2 -230601391#1 -230601391#0 566881424#0 566881424#1 566881424#2 26741710#0 26741710#1 614162718#0 614162718#1 614162718#2 614162718#3 614162718#4 614162718#5 614162718#6 614162718#7 275867910 476265008 26741707 26741708#0 26741708#1 1200090036 -4290463#2 -4290463#1 -4290463#0 4290463#0 4290463#1"/>
    </vehicle>
    <vehicle id="24" depart="480.00">
        <route edges="276149817#2 248507684 1202430694#0 1202430694#1 1202430694#2 1202430694#3 1202430694#4 25865163#0 25865163#1 4290821#0 4290821#1 4290821#2 1010357578#0 1010357578#1 1010357578#2 -476941533#8 1010353168 4290822 5055849#1 5055849#2 5055849#3"/>
    </vehicle>
    <vehicle id="25" depart="500.00">
        <route edges="-1293791185#1 -1293791185#0 -1293791186 -1293791187 -60592866 60592865#0 60592865#1 230601390 26741711#0 26741711#1 26741711#2 26741711#3 26741711#4 26741711#5 614162718#0 614162718#1 614162718#2 614162718#3 614162718#4 614162718#5 614162718#6 614162718#7 248507717#0 248507717#1 380679311#0 380679311#1 380679311#2 4290457#0 4290457#1 4290457#2 4290457#3 4290457#4 -4290457#4"/>
    </vehicle>
    <vehicle id="26" depart="520.00">
        <route edges="4290457#3 4290457#4 4290457#5 4290457#6 4290457#7 442264623#3 442264623#4 442264623#5 442264621 476255681 476255673 1202430694#0 1202430694#1 1202430694#2"/>
    </vehicle>
    <vehicle id="27" depart="540.00">
        <route edges="-4758470#0 4758470#0 4758470#1 -153750979 1293791184 185565003#0 185565003#1 943473686 566881424#0 566881424#1 566881424#2 26741710#0 26741710#1 614162718#0 614162718#1 614162718#2 614162718#3 614162718#4 614162718#5 614162718#6 614162718#7 248507717#0 248507717#1 380679311#0 380679311#1 380679311#2 -217438160#2 -217438160#1 -217438160#0 -476944848#1 -476944848#0 248520190#0 248520190#1 -476944847#2 -476944847#1 -476944847#0 4290460#0 4290460#1 4290460#2 4290460#3 4290460#4 4290460#5 217438141#0 217438141#1 1010771769#0 1010771769#1 -403543529 -217438147#1 -217438147#0 -133434843#4 -133434843#3 -133434843#2 -133434843#1 -133434843#0 -942436686#2 -942436686#1 -942436686#0 -640173874#1 -640173874#0 -60710855#2 -60710855#1 -60710855#0 -323174976#1"/>
    </vehicle>
    <vehicle id="28" depart="560.00">
        <route edges="-25401402#6 -25401402#5 -25401402#4 -25401402#3 -25401402#2 -25401402#1 -25401402#0 -476254558#1"/>
    </vehicle>
    <vehicle id="29" depart="580.00">
        <route edges="153751217#4 -153751494#1 -153751494#0 -1010821642 -1010821643 -1010821641 1293791199 475877420 1293791195 1293791196#0 1293791196#1 475877418 475877417 1293791194 1293791192 1293791193 1293791190 1293791191 60949089#0 60949089#1 1293791188 1293791189#0 1293791189#1 -60592866 60592865#0 60592865#1 230601390 26741711#0 26741711#1 26741711#2 26741711#3 26741711#4 26741711#5 614162718#0 614162718#1 614162718#2 614162718#3 614162718#4 614162718#5 614162718#6 614162718#7 275867910 476265008 476265012 442264617#0 442264617#1 248507676 -442264623#5 -442264623#4 -442264623#3 -442264623#2 -442264623#1 -442264623#0 442264623#0"/>
    </vehicle>
    <vehicle id="30" depart="600.00">
        <route edges="-4290445#4 -4290445#3 -4290445#2 -4290445#1 -4290445#0 476944855#0 476944855#1 374384808#0 374384808#1 374384808#2 374384808#3 374384808#4 374384808#5 374384808#6 476944852 442264627#0 442264627#1 476944850#0 476944850#1 476944850#2 476944847#0 476944847#1 476944847#2 1106519395#0 1106519395#1 24456971#0 24456971#1 476949275#0 476949275#1 262004666 614162727 131239196 711584205 132165965 476046132#0 476046132#1 476046132#2 1229215656 422072376#0 422072376#1 422072375 -1010819203#1"/>
    </vehicle>
    <vehicle id="31" depart="620.00">
        <route edges="153751380#1 -4757950#12 -4757950#11 -4757950#10 -4757950#9 -4757950#8 -4757950#7 -4757950#6 -4757950#5 -4757950#4 -4757950#3 -4757950#2 -4757950#1 -4757950#0 133434843#0 133434843#1 133434843#2 133434843#3 133434843#4 217438147#0 217438147#1 403543529 -1010771769#1 -1010771769#0 -1010771768#1 -1010771768#0 -1010771770 -1010771771#1 -1010771771#0 -4757905#4 -4757905#3 -4757905#2 -4757905#1 -4757905#0 711584206#1 24456971#0 24456971#1 476949275#0 476949275#1 -476949274#1 -476949274#0 -230601391#3 -230601391#2 -230601391#1 -230601391#0 566881424#0 566881424#1 566881424#2 26741710#0 26741710#1 614162718#0 614162718#1 614162718#2 614162718#3 614162718#4 614162718#5 614162718#6 614162718#7 248507717#0 248507717#1 380679311#0 479170513#0"/>
    </vehicle>
    <vehicle id="32" depart="640.00">
        <route edges="-942447107 -942447108 942447108 942447107 4757897 1010771758#4 -4757898#2 -4757898#1 -4757898#0 1010771762#0 1010771762#1 939015334 758742682 939040303 476046141#0 476046141#1 476046141#2 476046138 476046096#0 476046096#1"/>
    </vehicle>
    <vehicle id="33" depart="660.00">
        <route edges="1009411564#0 -323384259#1 -323384259#0 -4290470#2 -4290470#1 -4290470#0 4290470#0"/>
    </vehicle>
    <vehicle id="34" depart="680.00">
        <route edges="4290823#2 1162328475 288396023#0 288396023#1 288396023#2 288396023#3 288396025#0 288396025#1 288396025#2 288396025#3 288396025#4 288396025#5 288396025#6 288396025#7 288396025#8 288396025#9 288396025#10 288396025#11 276149817#2 476255693 476255676 4290461#0 4290461#1 476280067 476280066 26741709#0 26741709#1 26741709#2 26741709#3 26741709#4 26741709#5 26741709#6 276148851 185565009 185565010#0 185565010#1 185565010#2 185565010#3 479259737 275810359 4700037 1096513570 257838722 131680882 153751348 737187601 275867913 737187600"/>
    </vehicle>
    <vehicle id="35" depart="700.00">
        <route edges="-288396025#14 -288396025#13 288396025#13 288396025#14 288396025#15 288396025#16 288396025#17 288396025#18 476944854#0 476944854#1 374384808#0 374384808#1 374384808#2 374384808#3 374384808#4 374384808#5 374384808#6 476944852 442264627#0 442264627#1 476944850#0 476944850#1 476944850#2 476944847#0 476944847#1 476944847#2 1106519395#0 1106519395#1 24456971#0 24456971#1 476949275#0 476949275#1 -476949274#1 -476949274#0 -230601391#3 -230601391#2 -230601391#1 -230601391#0 -943473686 -185565003#1 -185565003#0 -1293791184 -276148849#1 -276148849#0 -1293791185#2 -1293791185#1 -1293791185#0 -1293791186 -1293791187 -1293791189#1 -1293791189#0 -1293791188 -60949089#1 -60949089#0 -1293791191 -1293791190 -1293791193 -1293791192 -1293791194 -475877417 -475877418 -1293791196#1 -1293791196#0 -1293791195 -475877420 -1293791199 -477472937 477472937"/>
    </vehicle>
    <vehicle id="36" depart="720.00">
        <route edges="26741709#3 26741709#4 26741709#5 26741709#6 276148851 185565009 185565010#0 185565010#1 185565010#2 185565010#3 479259737 275810359 4700037 1096513570 257838722 131680882 153751348 737187601 211848136#0 211848136#1 480372301 153751482#0 153751482#1 -153751468#3 -153751468#2 -153751468#1 -153751468#0 -1010464553 1010464551#0 -153751611#3"/>
    </vehicle>
    <vehicle id="37" depart="740.00">
        <route edges="1296311592 1293791198#0 -1293791198#0 -1296311592 -422072374#2 -422072374#1 -422072374#0 -1296311588 -1296311587 -1296311586 -1296311585 -1296311583 -1296311584 -1296311582 -1296311581 -1296311580#1 -1296311580#0 -422072375 -422072376#1 -422072376#0 -1229215656 -476046138 132165966#0 132165966#1 132165967 711584207 226324141#0 226324141#1 24456973 737188337 711584206#0 711584206#1 24456971#0 24456971#1 476949275#0"/>
    </vehicle>
    <vehicle id="38" depart="760.00">
        <route edges="4757952#1 4757952#2 4757953 -4290445#2 -4290445#1 -4290445#0 476944855#0 476944855#1 374384808#0 374384808#1 374384808#2 374384808#3 374384808#4 374384808#5 374384808#6 476944852 442264627#0 442264627#1 476944850#0 476944850#1 476944850#2 476944847#0 476944847#1 476944847#2 1106519395#0 1106519395#1 24456971#0 24456971#1 476949275#0 476949275#1 -476949274#1 -476949274#0 -230601391#3 -230601391#2 -230601391#1 -230601391#0 -943473686 -185565003#1 -185565003#0 -1293791184 -276148849#1 -276148849#0 -1293791185#2 -1293791185#1 -1293791185#0 -1293791186 -1293791187 -1293791189#1 -1293791189#0 -1293791188 -60949089#1 -60949089#0 -1293791191 -1293791190 -1293791193 -1293791192 -1293791194 -475877417 -475877418 -1293791196#1 -1293791196#0 -1293791195 -475877420 -1293791199 -477472937 -422072378#1 -422072378#0 -477472951#1 -477472951#0 -477472957"/>
    </vehicle>
    <vehicle id="39" depart="780.00">
        <route edges="-5055877#0 -5055880#1 -5055880#0 5059543#2 5059543#3 -288396025#2 -288396025#1 -288396025#0 -476941533#10 -476941533#9 -476941533#8 -476941533#7 -476941533#6 -476941533#5 -476941533#4 -476941533#3 -476941533#2 -476941533#1 -476941533#0 -476941534#3 -476941534#2 -476941534#1 -476941534#0 -276017789#10 -276017789#9 -276017789#8 -276017789#7 -276017789#6 -276017789#5 -276017789#4 -276017789#3 276017789#3 276017789#4"/>
    </vehicle>
    <vehicle id="40" depart="800.00">
        <route edges="-4757905#2 -4757905#1 -4757905#0 711584206#1 24456971#0 24456971#1 476949275#0 476949275#1 -476949274#1 -476949274#0 -230601391#3 -230601391#2 -230601391#1 -230601391#0 566881424#0 566881424#1 566881424#2 26741710#0 26741710#1 737188338#0 737188338#1 479259119#0 479259119#1 276148851 185565009 185565010#0 185565010#1 185565010#2 185565010#3 479259737 275810359 4700037 1096513570 257838722 131680882 153751348 737187601 211848136#0 211848136#1 480372301 966009654 275867911 60641695 -60641695 -275867911 60641712 60641734 476083651 277281621 475896810#0 475896810#1 1011856171 275867912 477472956#0"/>
    </vehicle>
    <vehicle id="41" depart="820.00">
        <route edges="-5059543#2 5059543#2 5059543#3 288396025#3 288396025#4 288396025#5 288396025#6 288396025#7 288396025#8 288396025#9 288396025#10 288396025#11 288396025#12 288396025#13 288396025#14 288396025#15 288396025#16 288396025#17 288396025#18 476944854#0 476944854#1 -476944855#1 -476944855#0 4290445#0 4290445#1 4290445#2 4290445#3 4290445#4 4290445#5 -133434836#1 -133434836#0 1011056827#0 1011056827#1"/>
    </vehicle>
    <vehicle id="42" depart="840.00">
        <route edges="-153751719#3 -153751228 -153751227#1 -153751227#0 -153751224#3 -153751224#2 -153751224#1 153751557#2"/>
    </vehicle>
    <vehicle id="43" depart="860.00">
        <route edges="26741708#1 1200090036 -1200090036 380679307 380679312 476280069 476280068#0 476280068#1 476265006 380679311#0 380679311#1 380679311#2 -217438160#2 -217438160#1 -217438160#0 -476944848#1 -476944848#0 248520190#0 248520190#1 -476944847#2 -476944847#1 -476944847#0 4290460#0 4290460#1 4290460#2 4290460#3 4290460#4 4290460#5 217438141#0 217438141#1 1010771769#0 1010771769#1 -403543529 -217438147#1 -217438147#0 -133434843#4 -133434843#3 -133434843#2 -133434843#1 -133434843#0 -942436686#2 -942436686#1 -942436686#0 -640173874#1 -640173874#0 -60710855#2 -60710855#1 -60710855#0 -323174976#1 -323174976#0 323175003#4 153751707#0"/>
    </vehicle>
    <vehicle id="44" depart="880.00">
        <route edges="996736365#2 996736365#3 996736365#4 996736365#5 996736365#6 996736365#7 996736365#8 276017789#0 276017789#1 276017789#2 276017789#3 276017789#4 276017789#5 276017789#6 276017789#7 276017789#8 276017789#9 276017789#10 476941534#0 476941534#1 476941534#2 476941534#3 476941533#0 476941533#1 476941533#2 476941533#3 476941533#4 476941533#5 476941533#6 476941533#7 476941533#8 476941533#9 476941533#10 288396025#0 288396025#1 288396025#2 -5059543#3 -5059543#2 -5059543#1 -5059543#0 -1010357574#3 -1010357574#2 -25401402#4 -25401402#3 -25401402#2 -25401402#1 -25401402#0 -476254558#1 -476254558#0"/>
    </vehicle>
    <vehicle id="45" depart="900.00">
        <route edges="-1010464547 -1009411565#1 1009411565#1 1010464547 4290469#0 4290469#1 4290469#2 1009411563 -25865163#4 -25865163#3 -25865163#2 -25865163#1 -25865163#0 -1202430694#4 -1202430694#3 -1202430694#2 -1202430694#1 -1202430694#0 -476255673 -476255681 -442264621 -442264623#5 -442264623#4 -442264623#3 -442264623#2 -442264623#1 -442264623#0 25482947 418711637#0 418711637#1 418711637#2 418711637#3 4757947#3 -4757948#0 -1011056827#1 -1011056827#0 -4757949#11 -4757949#10 -4757949#9 -4757949#8 -4757949#7 -4757949#6 -4757949#5 -4757949#4 -4757949#3 -4757949#2 -4757949#1 -4757949#0 4757950#0 4757950#1 4757950#2 4757950#3 4757950#4 4757950#5 4757950#6 4757950#7"/>
    </vehicle>
    <vehicle id="46" depart="920.00">
        <route edges="230601391#2 230601391#3 476949274#0 476949274#1 -476949274#1 -476949274#0 -230601391#3 -230601391#2 -230601391#1 -230601391#0 566881424#0 566881424#1 566881424#2 26741710#0 26741710#1 737188338#0 737188338#1 479259119#0 479259119#1 276148851 185565009 185565010#0 185565010#1 185565010#2 185565010#3 479259737 275810359 4700037 1096513570 257838722 131680882 153751348 737187601 211848136#0 211848136#1 480372301 966009654 275867911 60641695 438082909 132165960 566159489 566159488#0 566159488#1 -1011145571"/>
    </vehicle>
    <vehicle id="47" depart="940.00">
        <route edges="1010403483 996736365#5 996736365#6 996736365#7 996736365#8 276017789#0 276017789#1 276017789#2 276017789#3 276017789#4 276017789#5 276017789#6 276017789#7 276017789#8 276017789#9 276017789#10 -25865164#1 -25865164#0 -476941532 -25865163#7 -25865163#6 -25865163#5 -25865163#4 -25865163#3 -25865163#2 -25865163#1 -25865163#0 -1202430694#4 -1202430694#3 -1202430694#2 -1202430694#1 -1202430694#0 -476255673 -476255681 -442264621 -442264623#5 -442264623#4 -442264623#3 -442264623#2 -442264623#1 -442264623#0 25482947 418711637#0 418711637#1 418711637#2 418711637#3 -4757947#2 -4757947#1 -4757947#0 -1011049328#1 -1011049328#0 217438141#0 217438141#1 1010771769#0 1010771769#1 4757888#0 4757888#1 -4757894#1 -4757894#0 -4757898#1"/>
    </vehicle>
    <vehicle id="48" depart="960.00">