<?xml version="1.0" encoding="UTF-8"?>

<!-- generated on 2024-09-10 23:06:26.489798 by randomTrips.py v1_20_0+0002-343658e7c64
<configuration>
    <net-file value="VictoriaMap.net.xml"/>
    <route-file value="./lowdensity/lowRound7.rou.xml"/>
    <random value="True"/>
    <end value="1000.0"/>
    <period value="20.0"/>
</configuration>
-->

<!-- generated on 2024-09-10 23:06:26 by Eclipse SUMO duarouter Version 1.20.0
<configuration xmlns:xsi="http://www.w3.org/2001/XMLSchema-instance" xsi:noNamespaceSchemaLocation="http://sumo.dlr.de/xsd/duarouterConfiguration.xsd">

    <input>
        <net-file value="VictoriaMap.net.xml"/>
        <route-files value="trips.trips.xml"/>
    </input>

    <output>
        <output-file value="./lowdensity/lowRound7.rou.xml"/>
        <alternatives-output value="NUL"/>
    </output>

    <time>
        <begin value="0"/>
        <end value="1000.0"/>
    </time>

    <report>
        <no-warnings value="true"/>
        <ignore-errors value="true"/>
        <no-step-log value="true"/>
    </report>

</configuration>
-->

<routes xmlns:xsi="http://www.w3.org/2001/XMLSchema-instance" xsi:noNamespaceSchemaLocation="http://sumo.dlr.de/xsd/routes_file.xsd">
    <vehicle id="0" depart="0.00">
        <route edges="-1009411564#0 -4290471 -476628401 -476628402 -1200090036 380679307 380679312 248507680 26741709#0 -153751669#1 -153751669#0 153751669#0"/>
    </vehicle>
    <vehicle id="1" depart="20.00">
        <route edges="153751075 153751486#0 153751486#1 153751486#2 1010464553 153751468#0 153751468#1 153751468#2 153751468#3 153751479 438082909 132165960 566159489 566159488#0 -566159488#0 -566159489 -132165960 -438082909 -60641695 -275867911 60641712 60641734 476083651 277281621 153751352 153751350 153751355 275867914 131680889 1096513569#0 1096513569#1 4757885 230601390 26741711#0 26741711#1 26741711#2 26741711#3 26741711#4 26741711#5 614162718#0 614162718#1 614162718#2 614162718#3 614162718#4 614162718#5 614162718#6 614162718#7 275867910 476265008 476265012 442264617#0 442264617#1 248507676 -442264623#5 -442264623#4 -442264623#3 -442264623#2 -442264623#1 -442264623#0 25482947 418711637#0 418711637#1 418711637#2 418711637#3 4757947#3 -4757948#0 -1011056827#1 -1011056827#0 -4757949#11 -1290821781 -1290821782 -5055841"/>
    </vehicle>
    <vehicle id="2" depart="40.00">
        <route edges="276017789#5 276017789#6 276017789#7 276017789#8 276017789#9 276017789#10 -25865164#1 -25865164#0 -476941532 -25865163#7 -25865163#6 -25865163#5 -25865163#4 -25865163#3 -25865163#2 -25865163#1 -25865163#0 -1202430694#4 -1202430694#3 -1202430694#2 -1202430694#1 -1202430694#0 -476255673 -476255681 -442264621 -442264623#5 -442264623#4 -442264623#3 -442264623#2 -442264623#1 -442264623#0 25482947 418711637#0 418711637#1 418711637#2 418711637#3 4757947#3 -4757948#0 -4757904#1 -4757904#0 -1011056828#1"/>
    </vehicle>
    <vehicle id="3" depart="60.00">
        <route edges="4757949#7 -4757949#7 -4757949#6 -4757949#5 -4758173#3 -4758173#2 -4758173#1 -4758173#0 217438147#1 403543529 -1010771769#1 -1010771769#0 -1010771768#1 -1010771768#0 -1010771770 -1010771771#1 -1010771771#0 -4757905#4 -4757905#3 -4757905#2 -4757905#1 -4757905#0 711584206#1 24456971#0 24456971#1 476949275#0 476949275#1 -476949274#1 -476949274#0 -230601391#3 -230601391#2 -230601391#1 -230601391#0 -943473686 -185565003#1 -185565003#0 -1293791184 -276148849#1 -276148849#0 -1293791185#2 -1293791185#1 -1293791185#0 -1293791186 -1293791187 -1293791189#1 -1293791189#0 -1293791188 -60949089#1 -60949089#0 -1293791191 -1293791190 -1293791193 -1293791192 -1293791194 -475877417 -475877418 -1293791196#1 -1293791196#0 -1293791195 -475877420 -1293791199 1293791199 475877420 1293791195 1293791196#0"/>
    </vehicle>
    <vehicle id="5" depart="100.00">
        <route edges="-4290457#4 -4290457#3 -4290457#2 -4290457#1 -4290457#0 -217438160#2 -217438160#1 -217438160#0 -476944848#1 -476944848#0 248520190#0 248520190#1 1106519395#0 1106519395#1 24456971#0 24456971#1 476949275#0 476949275#1 -476949274#1 -476949274#0 -230601391#3 -230601391#2 -230601391#1 -230601391#0 -943473686 -185565003#1 -185565003#0 -1293791184 153750979 -4758470#1 153751042#0 153751042#1"/>
    </vehicle>
    <vehicle id="6" depart="120.00">
        <route edges="153751350 153751355 275867914 131680889 1096513569#0 1096513569#1 4757885 230601390 26741711#0 26741711#1 26741711#2 26741711#3 26741711#4 26741711#5 614162718#0 614162718#1 614162718#2 614162718#3 614162718#4 614162718#5 614162718#6 614162718#7 248507717#0 248507717#1 380679311#0 380679311#1 380679311#2 -217438160#2 -217438160#1 -217438160#0 -476944848#1 -476944848#0 248520190#0 248520190#1 -476944847#2 -476944847#1 -476944847#0 4290460#0 4290460#1 4290460#2 4290460#3 4290460#4 4290460#5 217438141#0 217438141#1 1010771769#0 1010771769#1 -403543529 -217438147#1 -217438147#0 -133434843#4 -133434843#3 -133434843#2 -133434843#1 -133434843#0 -942436686#2 -942436686#1 -942436686#0 -640173874#1 -640173874#0 -323174968#3 -323174968#2 153751459#0"/>
    </vehicle>
    <vehicle id="7" depart="140.00">
        <route edges="153751611#2 153751611#3 -1010464551#0 1010464553 153751468#0 153751468#1 153751468#2 153751468#3 153751479 438082909 132165960 566159489 566159488#0 566159488#1 -1011145571 -1011145572#1 -1011145572#0 -1011145573 -4794588#1 -4794588#0 -1010464548#1 -1010464548#0 275868701#9 275868701#10 275868701#11 275868701#12 4794587#0 4794587#1 4794587#2 -923019026#2 -923019026#1 -923019026#0 -25821516#6 -25821516#5 -25821516#4 -25821516#3 -25821516#2"/>
    </vehicle>
    <vehicle id="8" depart="160.00">
        <route edges="-476046141#0 -939040303 -758742682 758742682 939040303 476046141#0 476046141#1 476046141#2 132165966#0 132165966#1 132165967 711584207 226324141#0 226324141#1 24456973 737188337 711584206#0 4757905#0 4757905#1 4757905#2 4757905#3 4757905#4 1010771771#0 -1010771771#0 -4757905#4 -4757905#3 -4757905#2"/>
    </vehicle>
    <vehicle id="9" depart="180.00">
        <route edges="276149817#2 476255693 -476255681 -442264621 -442264623#5 -442264623#4 -442264623#3 -4290457#7 -4290457#6 -4290457#5 -4290457#4 -4290457#3 -4290457#2 -4290457#1 -4290457#0 1271185258#0 1271185258#1 380679310#0 380679310#1 380679310#2 380679310#3"/>
    </vehicle>
    <vehicle id="10" depart="200.00">
        <route edges="1009411565#1 1010464547 -4290471 -476628401 -476628402 -1200090036 380679307 380679312 476280069 476280068#0 476280068#1 476265006 380679311#0 380679311#1 380679311#2 -217438160#2 -217438160#1 -217438160#0 -476944848#1 -476944848#0 248520190#0 248520190#1 -476944847#2 -476944847#1 -476944847#0 4290460#0 4290460#1 4290460#2 4290460#3 4290460#4 4290460#5 217438141#0 217438141#1 1010771769#0 1010771769#1 4757888#0"/>
    </vehicle>
    <vehicle id="11" depart="220.00">
        <route edges="-1200090036 380679307 380679312 476280069 476280068#0 476280068#1 476265008 476265012 442264617#0 442264617#1 476255688 476255684 26425717#0 -288396025#12 -288396025#11 -288396025#10 -288396025#9 -288396025#8 -5055847#3 -5055847#2 -5055847#1 -5055847#0"/>
    </vehicle>
    <vehicle id="12" depart="240.00">
        <route edges="-1293791189#1 -1293791189#0 -1293791188 -60949089#1 -60949089#0 60949089#0 60949089#1 1293791188 1293791189#0 1293791189#1 -60592866 60592865#0 60592865#1 230601390 26741711#0 26741711#1 26741711#2 26741711#3 26741711#4 26741711#5 614162718#0 614162718#1 614162718#2 614162718#3 614162718#4 614162718#5 614162718#6 614162718#7 248507717#0 248507717#1 380679311#0 380679311#1 380679311#2 -217438160#2 -217438160#1 -217438160#0 -476944848#1 -476944848#0 248520190#0 248520190#1 -476944847#2 -476944847#1 -476944847#0 4290460#0 4290460#1 4290460#2 4290460#3 4290460#4 4290460#5 217438141#0 217438141#1 1010771769#0 1010771769#1 -403543529 -217438147#1 -217438147#0 -133434843#4 -133434843#3 -133434843#2 -133434843#1 -133434843#0 -942436686#2 -942436686#1 -942436686#0 -640173874#1 -640173874#0 -60710855#2 153751302"/>
    </vehicle>
    <vehicle id="13" depart="260.00">
        <route edges="323174968#2 -323174968#2 153751459#0 153751459#1 153751459#2 4757950#8 4757950#9 -744210346 -4757895#2 -4757899#2 -4757899#1 4757892#1 1010771762#0 1010771762#1 939015334 758742682 939040303 476046141#0 476046141#1 476046141#2 476046138 1229215656 422072376#0 422072376#1 422072375 1296311580#0 1296311580#1 1296311581 1296311582 1296311584 1296311583 1296311585 1296311586 1296311587 1296311588 422072374#0 422072374#1 422072374#2 1296311592 1293791198#0 1293791198#1 475877419 1293791197#0 1293791197#1 -475877418 -1293791196#1 -1293791196#0 -1293791195 -475877420 -1293791199 477472939 -130957293#3 -130957293#2 -130957293#1 -130957293#0 477472944#0 477472944#1"/>
    </vehicle>
    <vehicle id="14" depart="280.00">
        <route edges="4290445#0 4290445#1 4290445#2 4290445#3 4290445#4 4290445#5 -133434836#1 -133434836#0 -4757949#11 -4757949#10 -4757949#9 -4757949#8 -4757949#7 -4757949#6 -7969626#1"/>
    </vehicle>
    <vehicle id="15" depart="300.00">
        <route edges="460667718#0 460667718#1 422072378#0 422072378#1 477472937 1293791199 475877420 1293791195 1293791196#0 1293791196#1 475877418 -1293791197#1 -1293791197#0 -475877419 -1293791198#1 -1293791198#0 -1296311592 -422072374#2 -422072374#1 -422072374#0 -1296311588 -1296311587 -1296311586 -1296311585 -1296311583 -1296311584 -1296311582 -1296311581 -1296311580#1 -1296311580#0 -422072375 -422072376#1 -422072376#0 -1229215656 -476046138 -476046141#2 -476046141#1 -476046141#0 -939040303 -758742682 -4757890#2 -4757890#1 -4757890#0 -1010771765#1 -1010771765#0 -4757889#1 -4757889#0 -1010771766#1 -1010771766#0 -4757888#4 -4757888#3 -4757888#2 -4757888#1 -4757888#0 -403543529 -217438147#1 -217438147#0 -133434843#4 -133434843#3 -133434843#2 -133434843#1 -133434843#0 4757950#0"/>
    </vehicle>
    <vehicle id="16" depart="320.00">
        <route edges="477472957 477472952#0 477472952#1 422072379#0 422072379#1 422072379#2 153751357#0 153751357#1 153751355 275867914 131680889 1096513569#0 1096513569#1 4757885 230601390 26741711#0 26741711#1 26741711#2 26741711#3 26741711#4 26741711#5 614162718#0 614162718#1 614162718#2 614162718#3 614162718#4 614162718#5 614162718#6 614162718#7 275867910 476265008 26741707 26741708#0 4290462#0 4290462#1 25865163#1 25865163#2 25865163#3 25865163#4 25865163#5 25865163#6 25865163#7 476941532 25865164#0 25865164#1 -276017789#10 -276017789#9 -276017789#8 -276017789#7"/>
    </vehicle>
    <vehicle id="17" depart="340.00">
        <route edges="-275867911 60641712 60641734 476083651 277281621 153751352 153751350 153751355 275867914 131680889 1096513569#0 1096513569#1 4757885 230601390 26741711#0 26741711#1 26741711#2 26741711#3 26741711#4 26741711#5 614162718#0 614162718#1 614162718#2 614162718#3 614162718#4 614162718#5 614162718#6 614162718#7 275867910 476265008 26741707 26741708#0 26741708#1 1200090036 -4290463#2 -4290463#1 -4290463#0 1011145577#0 1011145577#1 966807164 1009411565#1"/>
    </vehicle>
    <vehicle id="18" depart="360.00">
        <route edges="-153751042#2 -153751042#1 153751703 -153750975#1 -153750975#0 -153750979 1293791184 185565003#0 185565003#1 943473686 566881424#0 566881424#1 566881424#2 26741710#0 26741710#1 614162718#0 614162718#1 614162718#2 614162718#3 614162718#4 614162718#5 614162718#6 614162718#7 275867910 476265008 26741707 26741708#0 4290462#0 4290462#1 25865163#1 4290821#0 4290821#1 4290821#2 1010357578#0 1010357578#1 1010357578#2"/>
    </vehicle>
    <vehicle id="20" depart="400.00">
        <route edges="25865163#6 25865163#7 -25865163#7 -25865163#6 -25865163#5 -25865163#4 -25865163#3 -25865163#2 -25865163#1 -25865163#0 -1202430694#4 -1202430694#3 -1202430694#2 -1202430694#1 -1202430694#0 -476255673 -476255681 -442264621 -442264623#5 -442264623#4 -442264623#3 -442264623#2 -442264623#1 -442264623#0 25482947 418711637#0 418711637#1 418711637#2 418711637#3 -4757947#2 -4757947#1 -4757947#0 -1011049328#1 -1011049328#0 -4290460#5"/>
    </vehicle>
    <vehicle id="21" depart="420.00">
        <route edges="161137746 -161137746 -1258793099 -1292997428#2 -1292997428#1 -1292997428#0 -1011145577#1 -1011145577#0 4418533#0 4418533#1 380679312 476280069 476280068#0 476280068#1 476265006 380679311#0 380679311#1 380679311#2 -217438160#2 -217438160#1 -217438160#0 -476944848#1 -476944848#0 248520190#0 248520190#1 -476944847#2 -476944847#1 -476944847#0 4290460#0 4290460#1 4290460#2 4290460#3 4290460#4 4290460#5 217438141#0 4757906#0 4757906#1 1010771772 -1010771771#0 -4757905#4 -4757905#3 -4757905#2 -4757905#1 -4757905#0 4757905#0 4757905#1 4757905#2 4757905#3 4757905#4 1010771771#0"/>
    </vehicle>
    <vehicle id="22" depart="440.00">
        <route edges="276149817#0 276149817#1 -288396025#11 -288396025#10 -288396025#9 -288396025#8 -288396025#7 -288396025#6 -288396025#5 -288396025#4 288396025#4"/>
    </vehicle>
    <vehicle id="23" depart="460.00">
        <route edges="1293791198#0 1293791198#1 475877419 1293791197#0 1293791197#1 475877417 1293791194 1293791192 1293791193 1293791190 1293791191 60949089#0 60949089#1 1293791188 1293791189#0 1293791189#1 -60592866 60592865#0 60592865#1 230601390 26741711#0 26741711#1 26741711#2 26741711#3 26741711#4 26741711#5 614162718#0 614162718#1 614162718#2 614162718#3 614162718#4 614162718#5 614162718#6 614162718#7 275867910 476265008 26741707 26741708#0 4290462#0 4290462#1 25865163#1 25865163#2 25865163#3 25865163#4 25865163#5 25865163#6 25865163#7 476941532 25865164#0 25865164#1 -25865164#1 -25865164#0 -476941532"/>
    </vehicle>
    <vehicle id="24" depart="480.00">
        <route edges="1296311587 1296311588 422072374#0 422072374#1 -422072374#1 -422072374#0 -1296311588 -1296311587 -1296311586 -1296311585 -1296311583 -1296311584 -1296311582 -1296311581 -1296311580#1 -1296311580#0 -422072375 -422072376#1 -422072376#0 -1229215656 -476046138 132165966#0 132165966#1 132165967 711584207 226324141#0 226324141#1 24456973 737188337 711584206#0 711584206#1 -1106519395#1 -1106519395#0 -476944847#2 -476944847#1 -476944847#0 -476944850#2 -476944850#1 -476944850#0 -442264627#1 -442264627#0 -476944853 -1013122851 -4758191#2 153750973 153750972 -153750972"/>
    </vehicle>
    <vehicle id="25" depart="500.00">
        <route edges="4290471 4290469#0 4290469#1 4290469#2 1009411563 -25865163#4 -25865163#3 -25865163#2 -25865163#1 -25865163#0 -1202430694#4 -1202430694#3 -1202430694#2 -1202430694#1 -1202430694#0 -476255673 -476255681 -442264621 -442264623#5 -442264623#4 -442264623#3 -442264623#2 -442264623#1 -442264623#0 25482947 418711637#0 418711637#1 418711637#2 418711637#3 4757947#3 -4757948#0 -1011056827#1 -1011056827#0 -4757949#11 -4757949#10 -4757949#9 -4757949#8 -4757949#7 -4757949#6 -4757949#5 -4757949#4 -4757949#3 -4757949#2 -4757949#1 -4757949#0 4757950#0 4757950#1 4757950#2 4757950#3 4757950#4"/>
    </vehicle>
    <vehicle id="26" depart="520.00">
        <route edges="1290821780 7969626#0 7969626#1 -4757949#5 -4758173#3 -4758173#2 -4758173#1 -4758173#0 217438147#1 403543529 -1010771769#1 -1010771769#0 -1010771768#1 -1010771768#0 -1010771770 -1010771771#1 -1010771771#0 -4757905#4 -4757905#3 -4757905#2 -4757905#1 -4757905#0 711584206#1 24456971#0 24456971#1 476949275#0 476949275#1 -476949274#1 -476949274#0 -230601391#3 -230601391#2 -230601391#1 -230601391#0 -943473686 -185565003#1 -185565003#0 -1293791184 -276148849#1 -276148849#0 -1293791185#2 -1293791185#1 -1293791185#0 -1293791186 -1293791187 -60592866"/>
    </vehicle>
    <vehicle id="27" depart="540.00">
        <route edges="-4290444#0 4290444#0 4290444#1 415301040#0 415301040#1 476944858 476944857#0 476944857#1 476944857#2 476944856 476944855#0 476944855#1 374384808#0 374384808#1 374384808#2 374384808#3 374384808#4 374384808#5 374384808#6 476944852 442264627#0 442264627#1 476944850#0 476944850#1 476944850#2 476944847#0 476944847#1 476944847#2 1106519395#0 1106519395#1 24456971#0 24456971#1 476949275#0 476949275#1 -476949274#1 -476949274#0 -230601391#3 -230601391#2 -230601391#1 -230601391#0 -943473686 -185565003#1 -185565003#0 -1293791184 -276148849#1 -276148849#0 -1293791185#2 -1293791185#1 -1293791185#0 -1293791186 -1293791187 -1293791189#1 -1293791189#0 -1293791188 -60949089#1 -60949089#0 -1293791191 -1293791190 -1293791193 -1293791192 -1293791194 -475877417 -475877418 -1293791196#1 -1293791196#0 -1293791195 -475877420 -1293791199 -477472937 -422072378#1 -422072378#0 -477472951#1 -477472951#0 -477472957 477472955#0 477472955#1 477472949 711584720 153751339 -153751339"/>
    </vehicle>
    <vehicle id="28" depart="560.00">
        <route edges="-217438160#1 -217438160#0 -476944848#1 -476944848#0 476944848#0 476944848#1 217438160#0 217438160#1 217438160#2 1271185258#0 1271185258#1 380679310#0 380679310#1 380679310#2 380679310#3 1294744456 275867916 26741707 26741708#0 26741708#1 1200090036 -4290463#2 -4290463#1 -4290463#0 1011145577#0 1011145577#1 1292997428#0 1292997428#1 1292997428#2 1292997428#3 1258793096 30176226 1258793098"/>
    </vehicle>
    <vehicle id="29" depart="580.00">
        <route edges="25401402#3 25401402#4 1010357574#2 1010357574#3 5059543#0 5059543#1 5059543#2 5059543#3 288396025#3 288396025#4 288396025#5 288396025#6 288396025#7 288396025#8 288396025#9 288396025#10 288396025#11 288396025#12 288396025#13 288396025#14 288396025#15 288396025#16 288396025#17 288396025#18 476944854#0 476944854#1 55060427#0 55060427#1 133434849 -4757948#0 -1011056827#1 -1011056827#0 -4757949#11 4757949#11 -5066515#4 -5066515#3 -22988488#1"/>
    </vehicle>
    <vehicle id="30" depart="600.00">
        <route edges="1296311592 1293791198#0 1293791198#1 475877419 1293791197#0 1293791197#1 475877417 1293791194 1293791192 1293791193 1293791190 1293791191 60949089#0 60949089#1 1293791188 1293791189#0 1293791189#1 -60592866 60592865#0 60592865#1 230601390 26741711#0 26741711#1 26741711#2 26741711#3 26741711#4 26741711#5 614162718#0 614162718#1 614162718#2 614162718#3 614162718#4 614162718#5 614162718#6 614162718#7 248507717#0 248507717#1 380679311#0 380679311#1 380679311#2 -217438160#2"/>
    </vehicle>
    <vehicle id="31" depart="620.00">
        <route edges="1292997428#0 1292997428#1 1292997428#2 1292997428#3 1292997428#4 1292997428#5 1292997428#6 1292997428#7 1292997428#8 25924602#0 25924602#1 25924602#2 1292997429 1011145575#0 1011145575#1 1011145574#0 1011145574#1 1011145573 1011145572#0 1011145572#1 1011145571 575836107 912496684"/>
    </vehicle>
    <vehicle id="32" depart="640.00">
        <route edges="476046141#0 476046141#1 476046141#2 -476046141#2 -476046141#1 -476046141#0 -939040303 -758742682 -4757890#2 -4757890#1 -4757890#0 -1010771765#1 -1010771765#0 1010771764#0 1010771764#1 -1010771764#1 -1010771764#0"/>
    </vehicle>
    <vehicle id="33" depart="660.00">
        <route edges="4758173#1 4758173#2 4758173#3 4757949#5 4757949#6 4757949#7 4757949#8 4757949#9 4757949#10 4757949#11 1011056827#0 1011056827#1 4757948#0 -4757947#3 -418711637#3 -418711637#2 -418711637#1 -418711637#0 -25482947 442264623#0 442264623#1 442264623#2 442264623#3 442264623#4 442264623#5 442264621 476255681 476255673 1202430694#0 1202430694#1 1202430694#2 1202430694#3 1202430694#4 25865163#0 25865163#1 25865163#2 25865163#3 25865163#4 25865163#5 25865163#6 25865163#7 476941532 25865164#0 25865164#1 -276017789#10 -276017789#9 -276017789#8 -276017789#7 -276017789#6 -1009411564#1"/>
    </vehicle>
    <vehicle id="34" depart="680.00">
        <route edges="-1010771768#0 -1010771770 -1010771771#1 -1010771771#0 -4757905#4 -4757905#3 -4757905#2 -4757905#1 -4757905#0 711584206#1 24456971#0 24456971#1 476949275#0 476949275#1 262004666 614162727 131239196 711584205 132165965 476046132#0 476046132#1 476046132#2 1229215656 422072376#0 422072376#1 422072375 1296311580#0 1296311580#1 1296311581 1296311582 1296311584 1296311583 1296311585 1296311586 1296311587 1296311588 422072374#0 422072374#1"/>
    </vehicle>
    <vehicle id="35" depart="700.00">
        <route edges="153751224#1 153751061 1293791193 1293791190 1293791191 60949089#0 60949089#1 1293791188 1293791189#0 1293791189#1 -60592866 60592865#0 60592865#1 230601390 26741711#0 26741711#1 26741711#2 26741711#3 26741711#4 26741711#5 614162718#0 614162718#1 614162718#2 614162718#3 614162718#4 614162718#5 614162718#6 614162718#7 275867910 476265008 26741707 26741708#0 26741708#1 1200090036 -4290463#2 -4290463#1 -4290463#0 1011145577#0 1011145577#1 1292997428#0 1292997428#1 1292997428#2 1292997428#3 1292997428#4 1292997428#5 1292997428#6 -147354203 -35263781#0 147354209#2 -147354209#2"/>
    </vehicle>
    <vehicle id="36" depart="720.00">
        <route edges="614162718#7 275867910 476265008 26741707 26741708#0 26741708#1 1200090036 -4290463#2 -4290463#1 -4290463#0 1011145577#0 1011145577#1 1292997428#0 1292997428#1 1292997428#2 1292997428#3 1292997428#4 1292997428#5 1292997428#6 1292997428#7 1292997428#8 25924602#0 25924602#1 -4794583#3 -4794583#2 -4794583#1"/>
    </vehicle>
    <vehicle id="37" depart="740.00">
        <route edges="-479259119#0 -737188338#1 -737188338#0 -26741710#1 -26741710#0 -566881424#2 -566881424#1 -566881424#0 -943473686 -185565003#1 -185565003#0 -1293791184 -276148849#1 -276148849#0 -1293791185#2 -1293791185#1 -1293791185#0 -1293791186 -1293791187 -1293791189#1 -1293791189#0 -1293791188 -60949089#1 -60949089#0 -1293791191 -1293791190 -1293791193 -1293791192 -1293791194 -475877417 -475877418 -1293791196#1 -1293791196#0 -1293791195 -475877420 -1293791199 1010821641 1010821643 1010821642 153751494#0 153751494#1 -153751217#4 -153751217#3 -153751217#2 -153751217#1 -153751217#0"/>
    </vehicle>
    <vehicle id="38" depart="760.00">
        <route edges="-133434849 -55060427#1 -55060427#0 -476944854#1 -476944854#0 -288396025#18 -288396025#17 -288396025#16 -288396025#15 -288396025#14 -288396025#13 -288396025#12 -288396025#11 -288396025#10 -288396025#9 -288396025#8 -5055847#3 -5055847#2 -5055847#1 -5055847#0 -1010464550#3 -1010464550#2 -1010464550#1"/>
    </vehicle>
    <vehicle id="40" depart="800.00">
        <route edges="-153751729#1 -153751729#0 -153751340 275867912 477472956#0 477472956#1 477472957 477472952#0 477472952#1 422072379#0 422072379#1 422072379#2 475896809#0 475896809#1 475896808 60641714 480372301 966009654 275867911 60641695 438082909 132165960 566159489 566159488#0 566159488#1 -1011145571 -1011145572#1 -1011145572#0 -1011145573 -4794588#1 -4794588#0 -1010464548#1 -1010464548#0 275868701#9 275868701#10 275868701#11 275868701#12 4794587#0 4794587#1 4794587#2 -923019026#2 -923019026#1 -923019026#0 -25821516#6 -25821516#5 -25821516#4 -25821516#3 -25821516#2 -25821516#1 -25821516#0 25821516#0 25821516#1 25821516#2 25821516#3 25821516#4 25821516#5 25821516#6 923019026#0 923019026#1 923019026#2"/>
    </vehicle>
    <vehicle id="41" depart="820.00">
        <route edges="4757905#1 4757905#2 4757905#3 4757905#4 1010771771#0 -1010771771#0 -4757905#4 -4757905#3 -4757905#2 -4757905#1 -4757905#0 711584206#1 -1106519395#1 -1106519395#0 -476944847#2 -476944847#1 -476944847#0 -476944850#2 -476944850#1 -476944850#0 -442264627#1 -442264627#0 -476944852 -374384808#6 -374384808#5 -374384808#4 -374384808#3 -374384808#2 -374384808#1 -374384808#0 -476944855#1 -476944855#0 4290445#0 4290445#1 4290445#2 -4290445#2 -4290445#1 -4290445#0"/>
    </vehicle>
    <vehicle id="42" depart="840.00">
        <route edges="-153751056#3 -153751056#2 -153751056#1 -153751056#0 153751056#0 153751056#1 153751056#2 153751056#3 -4757950#5 -4757950#4 -4757950#3 -4757950#2 -4757950#1 -4757950#0 133434843#0 133434843#1 133434843#2 133434843#3 133434843#4 217438147#0 217438147#1 403543529 -1010771769#1 -1010771769#0 -1010771768#1 -1010771768#0 -1010771770 -1010771771#1 -1010771771#0 -4757905#4 -4757905#3 -4757905#2 -4757905#1 -4757905#0 711584206#1 24456971#0 24456971#1 476949275#0 476949275#1 -476949274#1 -476949274#0 -230601391#3 -230601391#2 -230601391#1 -230601391#0 -943473686 -185565003#1 -185565003#0 -1293791184 1293791184 185565003#0"/>
    </vehicle>
    <vehicle id="43" depart="860.00">
        <route edges="-336588957#1 -336588957#0 -336588955 -156129402#2 -156129402#1 -156129402#0 -1291596194 336588950#1 336588950#2 415301040#0 415301040#1 476944858 476944857#0 476944857#1 476944857#2 476944856 476944855#0 476944855#1 374384808#0 374384808#1 374384808#2 374384808#3 374384808#4 374384808#5 374384808#6 476944852 442264627#0 442264627#1 476944850#0 476944850#1 476944850#2 476944847#0 476944847#1 476944847#2 1106519395#0 1106519395#1 24456971#0 24456971#1 476949275#0 476949275#1 -476949274#1 -476949274#0 -230601391#3 -230601391#2 -230601391#1 -230601391#0 230601391#0"/>
    </vehicle>
    <vehicle id="44" depart="880.00">
        <route edges="1011048897 1011048898 5055846 1011048896 -288396025#5 -288396025#4 -288396025#3 -288396025#2 -288396025#1 -288396025#0 -476941533#10 -476941533#9 -476941533#8 -476941533#7 -476941533#6 -476941533#5 -476941533#4 -476941533#3 -476941533#2 -476941533#1 -476941533#0 -476941534#3 -476941534#2 -476941534#1 -476941534#0 -276017789#10 -276017789#9 -276017789#8 -276017789#7 -276017789#6 -276017789#5 -276017789#4 -276017789#3 -276017789#2 -276017789#1 -276017789#0 4290820"/>
    </vehicle>
    <vehicle id="45" depart="900.00">
        <route edges="131239196 711584205 132165965 476046132#0 476046132#1 476046132#2 -476046138 -476046141#2 -476046141#1 -476046141#0 -939040303 -758742682 -939015334 -1010771762#1 -1010771762#0 4757898#0 4757898#1 4757898#2 -1010771758#4 -1010771758#3 -1010771758#2 1010771758#2"/>
    </vehicle>
    <vehicle id="46" depart="920.00">
        <route edges="-1010464548#0 1010464548#0 1010464548#1 4794588#0 4794588#1 -1011145574#1 -1011145574#0 -1011145575#1 -1011145575#0 -1292997429 -25924602#2 -25924602#1 -25924602#0 -1292997428#8 -1292997428#7 -1292997428#6 -1292997428#5 -1292997428#4 -1292997428#3 -1292997428#2 -1292997428#1 -1292997428#0 -1011145577#1 -1011145577#0 4418533#0 4418533#1 380679312 476280069 476280068#0 476280068#1 476265006 380679311#0 380679311#1 380679311#2 -217438160#2 -217438160#1 -217438160#0 -476944848#1 -476944848#0 248520190#0 248520190#1 -476944847#2 -476944847#1 -476944847#0 4290460#0 4290460#1 4290460#2 4290460#3 4290460#4 4290460#5 217438141#0 217438141#1 1010771769#0 1010771769#1 4757888#0 4757888#1 4757888#2 4757888#3 -4757888#3"/>
    </vehicle>
    <vehicle id="47" depart="940.00">
        <route edges="614162718#4 614162718#5 614162718#6 614162718#7 275867910 476265008 26741707 26741708#0 26741708#1 1200090036 476628402"/>
    </vehicle>
    <vehicle id="48" depart="960.00">
        <route edges="476941533#10 288396025#0 288396025#1 288396025#2 288396025#3 288396025#4 288396025#5 288396025#6 288396025#7 288396025#8 288396025#9 288396025#10 288396025#11 288396025#12 288396025#13 288396025#14 288396025#15 288396025#16 288396025#17 288396025#18 476944854#0 476944854#1 374384808#0 374384808#1 374384808#2 374384808#3 374384808#4 374384808#5 374384808#6 476944852 -476944853 -1013122851 -4758191#2 153750973 153750972 -153750972 -153750973"/>
    </vehicle>
    <vehicle id="49" depart="980.00">
        <route edges="4757949#5 -4757949#5 -4758173#3 -4758173#2 -4758173#1 -4758173#0 217438147#1 403543529 -1010771769#1 -1010771769#0 -1010771768#1 -1010771768#0 -1010771770 -1010771771#1 -1010771771#0 -4757905#4 -4757905#3 -4757905#2 -4757905#1 -4757905#0 711584206#1 24456971#0 24456971#1 476949275#0 476949275#1 -476949274#1 -476949274#0 -230601391#3 -230601391#2 -230601391#1 -230601391#0 566881424#0 566881424#1 566881424#2 26741710#0 26741710#1 737188338#0 737188338#1 479259119#0 479259119#1 276148851 185565009 185565010#0 185565010#1 185565010#2 185565010#3 479259737 275810359 4700037 1096513570 257838722 131680882 153751348 737187601 275867913 737187600"/>
    </vehicle>
</routes>
