<?xml version="1.0" encoding="UTF-8"?>

<!-- generated on 2024-09-10 23:06:21.437461 by randomTrips.py v1_20_0+0002-343658e7c64
<configuration>
    <net-file value="VictoriaMap.net.xml"/>
    <route-file value="./lowdensity/lowRound6.rou.xml"/>
    <random value="True"/>
    <end value="1000.0"/>
    <period value="20.0"/>
</configuration>
-->

<!-- generated on 2024-09-10 23:06:21 by Eclipse SUMO duarouter Version 1.20.0
<configuration xmlns:xsi="http://www.w3.org/2001/XMLSchema-instance" xsi:noNamespaceSchemaLocation="http://sumo.dlr.de/xsd/duarouterConfiguration.xsd">

    <input>
        <net-file value="VictoriaMap.net.xml"/>
        <route-files value="trips.trips.xml"/>
    </input>

    <output>
        <output-file value="./lowdensity/lowRound6.rou.xml"/>
        <alternatives-output value="NUL"/>
    </output>

    <time>
        <begin value="0"/>
        <end value="1000.0"/>
    </time>

    <report>
        <no-warnings value="true"/>
        <ignore-errors value="true"/>
        <no-step-log value="true"/>
    </report>

</configuration>
-->

<routes xmlns:xsi="http://www.w3.org/2001/XMLSchema-instance" xsi:noNamespaceSchemaLocation="http://sumo.dlr.de/xsd/routes_file.xsd">
    <vehicle id="0" depart="0.00">
        <route edges="185565003#1 943473686 566881424#0 566881424#1 566881424#2 26741710#0 26741710#1 614162718#0 614162718#1 614162718#2 614162718#3 614162718#4 614162718#5 614162718#6 614162718#7 275867910 476265008 26741707 26741708#0 26741708#1 1200090036 476628402 380679313 1011871289#0 1011871289#1 1011871290 4290467#0 4290467#1 -323384264"/>
    </vehicle>
    <vehicle id="1" depart="20.00">
        <route edges="-4290457#1 -4290457#0 1271185258#0 1271185258#1 380679310#0 380679310#1 380679310#2 380679310#3 1294744456 275867916 26741707 26741708#0 26741708#1 1200090036 -4290463#2 -4290463#1 -4290463#0 1011145577#0 1011145577#1 1292997428#0 1292997428#1 1292997428#2 1292997428#3 1292997428#4 1292997428#5 1292997428#6 -147354203 -35263781#0 -147354209#1 -147354209#0 -1010464549#2 -147354207"/>
    </vehicle>
    <vehicle id="2" depart="40.00">
        <route edges="-442264627#0 442264627#0 442264627#1 476944850#0 476944850#1 476944850#2 476944847#0 476944847#1 476944847#2 1106519395#0 1106519395#1 24456971#0 24456971#1 476949275#0 476949275#1 262004666 614162727 131239196 711584205 132165965 476046132#0 476046132#1 476046132#2 1229215656 422072376#0 422072376#1 422072375 153750974#0 153750974#1 153750974#2 1010819204 -153751510#1 153750964"/>
    </vehicle>
    <vehicle id="3" depart="60.00">
        <route edges="-147354207 -4794583#0 -996736365#7 -996736365#6 -996736365#5 -996736365#4 -996736365#3 -996736365#2 -996736365#1 -996736365#0 4794587#0 4794587#1 4794587#2 -4794587#2 -4794587#1 -4794587#0"/>
    </vehicle>
    <vehicle id="4" depart="80.00">
        <route edges="438082909 132165960 566159489 566159488#0 -566159488#0 -566159489 -132165960 -438082909 -60641695 -275867911 60641712 60641734 476083651 277281621 153751352 153751350 153751355 275867914 131680889 1096513569#0 1096513569#1 4757885 230601390 26741711#0 26741711#1 26741711#2 26741711#3 26741711#4 26741711#5 614162718#0 614162718#1 614162718#2 614162718#3 614162718#4 614162718#5 614162718#6 614162718#7 275867910 476265008 476265012 442264617#0 442264617#1 248507676 -442264623#5 -442264623#4 -442264623#3 -442264623#2 -442264623#1 -442264623#0 25482947 418711637#0 418711637#1 418711637#2"/>
    </vehicle>
    <vehicle id="5" depart="100.00">
        <route edges="-1010357576#2 -1010357576#1 -1010357576#0 1010357576#0 1010357576#1 1010357576#2 1010357576#3 1010357575 288396025#4 288396025#5 288396025#6 288396025#7 288396025#8 288396025#9 288396025#10 288396025#11 288396025#12 288396025#13 288396025#14 288396025#15 288396025#16 288396025#17 288396025#18 476944854#0 476944854#1 374384808#0 374384808#1 374384808#2 374384808#3 374384808#4 374384808#5 374384808#6 476944852 442264627#0 442264627#1 476944850#0 476944850#1 476944850#2 476944847#0 476944847#1 476944847#2 1106519395#0 1106519395#1 24456971#0 24456971#1 476949275#0 476949275#1 -476949274#1 -476949274#0 -230601391#3 -230601391#2 -230601391#1 -230601391#0 -943473686 -185565003#1 -185565003#0 -1293791184 153750979 -4758470#1 -153751045#2 -153751045#1 -153751045#0 153751045#0"/>
    </vehicle>
    <vehicle id="6" depart="120.00">
        <route edges="153751357#0 153751357#1 153751355 275867914 131680889 1096513569#0 1096513569#1 4757885 230601390 26741711#0 26741711#1 26741711#2 26741711#3 26741711#4 26741711#5 614162718#0 614162718#1 614162718#2 614162718#3 614162718#4 614162718#5 614162718#6 614162718#7 248507717#0 248507717#1 380679311#0 380679311#1 380679311#2 -217438160#2 -217438160#1 -217438160#0 -476944848#1 -476944848#0 -476944849 -4290459#2 -4290459#1 -4290459#0"/>
    </vehicle>
    <vehicle id="7" depart="140.00">
        <route edges="476944847#0 476944847#1 476944847#2 1106519395#0 1106519395#1 24456971#0 24456971#1 476949275#0 476949275#1 -476949274#1 -476949274#0 -230601391#3 -230601391#2 -230601391#1 -230601391#0 -943473686 -185565003#1 -185565003#0 -1293791184 -276148849#1 -276148849#0 -1293791185#2 -1293791185#1 -1293791185#0 -1293791186 -1293791187 -1293791189#1 -1293791189#0 -1293791188 -60949089#1 -60949089#0 -1293791191 -1293791190 -1293791193 -1293791192 -1293791194 -475877417 -475877418 -1293791196#1 -1293791196#0 -1293791195 -475877420 -1293791199 1010821641 1010821643 1010821642 153751494#0 153751494#1 -153751217#4 -153751217#3 -153751217#2 -153751217#1 -153751217#0 -1010821639#3"/>
    </vehicle>
    <vehicle id="8" depart="160.00">
        <route edges="-288396025#0 288396024#0 288396024#1 132296460#0 132296460#1 -25401402#6 -25401402#5 -25401402#4 -25401402#3 -25401402#2 -25401402#1 -25401402#0"/>
    </vehicle>
    <vehicle id="9" depart="180.00">
        <route edges="-336588957#0 -336588955 -156129402#2 -156129402#1 -156129402#0 -1291596194 336588950#1 336588950#2 415301040#0 415301040#1 476944858 476944857#0 476944857#1 476944857#2 476944856 4290445#0 4290445#1"/>
    </vehicle>
    <vehicle id="10" depart="200.00">
        <route edges="-1293791195 -475877420 -1293791199 1293791199 475877420 1293791195 1293791196#0 -1010819207 -153751251#2 -153751251#1 -153751251#0 153751251#0 153751251#1 153751251#2 1010819207"/>
    </vehicle>
    <vehicle id="11" depart="220.00">
        <route edges="-1290821780 -86579823 86579823 1290821780 7969626#0 7969626#1 4757949#6 4757949#7 4757949#8 4757949#9 4757949#10 4757949#11 1011056827#0 1011056827#1 4757948#0 -133434849 -55060427#1 -55060427#0 -476944854#1 -476944854#0 -288396025#18 -288396025#17 -288396025#16 -288396025#15 -288396025#14 -288396025#13 -288396025#12 -288396025#11 -288396025#10 -288396025#9 -288396025#8 -288396025#7 -288396025#6 -288396025#5 -288396025#4 -288396025#3 -5059543#3 -5059543#2 -5059543#1 -5059543#0 -1010357574#3 -1010357574#2 25401402#5 25401402#6 25401403#0 25401403#1 25401403#2 25401403#3 -4290823#0"/>
    </vehicle>
    <vehicle id="12" depart="240.00">
        <route edges="1010821639#0 -1010821639#0 422072378#1 477472937 1293791199 475877420 1293791195 1293791196#0 1293791196#1 475877418 475877417 1293791194 1293791192 1293791193 -153751557#2 -153751224#0 153751791#0"/>
    </vehicle>
    <vehicle id="13" depart="260.00">
        <route edges="-1010819202#0 -153750979 1293791184 185565003#0 185565003#1 943473686 566881424#0 566881424#1 566881424#2 26741710#0 26741710#1 614162718#0 614162718#1 614162718#2 614162718#3 614162718#4 614162718#5 614162718#6 614162718#7 275867910 476265008 26741707 26741708#0 4290462#0 4290462#1 25865163#1 25865163#2 25865163#3 25865163#4 25865163#5 25865163#6 25865163#7 476941535#0 476941535#1 476941533#0 476941533#1"/>
    </vehicle>
    <vehicle id="14" depart="280.00">
        <route edges="1010771760 4757900#0 4757900#1 -217438147#1 217438147#1 403543529 -1010771769#1 -1010771769#0 -217438141#1 -217438141#0 1011049328#0 1011049328#1 4757947#0 4757947#1 4757947#2 4757947#3 -133434849 -55060427#1 -55060427#0 -476944854#1 -476944854#0 -288396025#18 -288396025#17 -288396025#16 -288396025#15 -288396025#14 -288396025#13 -288396025#12 -288396025#11 -288396025#10 -288396025#9 -288396025#8 -288396025#7 -288396025#6 -288396025#5 -288396025#4 -288396025#3 -288396025#2 -288396025#1 -288396025#0 288396024#0 288396024#1 132296460#0 132296460#1 -25401402#6 -25401402#5"/>
    </vehicle>
    <vehicle id="15" depart="300.00">
        <route edges="1011056827#1 4757948#0 -133434849 -55060427#1 -55060427#0 -476944854#1 -476944854#0 -288396025#18 -288396025#17 -288396025#16 -288396025#15 -288396025#14 -288396025#13 26425717#1 26425717#2 26425717#3 26425717#4 476254575 156129401 476254558#0 476254558#1 25401402#0 -5055876#1 -5055876#0"/>
    </vehicle>
    <vehicle id="16" depart="320.00">
        <route edges="288396025#17 288396025#18 476944854#0 476944854#1 374384808#0 374384808#1 374384808#2 374384808#3 374384808#4 374384808#5 374384808#6 476944852 442264627#0 442264627#1 476944850#0 476944850#1 476944850#2 476944847#0 476944847#1 476944847#2 1106519395#0 1106519395#1 24456971#0 24456971#1 476949275#0 476949275#1 -476949274#1 -476949274#0 -230601391#3 -230601391#2 -230601391#1 -230601391#0 566881424#0 566881424#1 566881424#2 26741710#0 26741710#1 737188338#0 737188338#1 479259119#0 479259119#1 276148851 185565009 185565010#0 185565010#1 185565010#2 185565010#3 479259737 275810359 4700037 1096513570 257838722 131680882 153751348"/>
    </vehicle>
    <vehicle id="17" depart="340.00">
        <route edges="1010464548#0 1010464548#1 4794588#0 -4794588#0 -1010464548#1 -1010464548#0 275868701#9 275868701#10 275868701#11 275868701#12 996736365#0 996736365#1 996736365#2 996736365#3 996736365#4 996736365#5 996736365#6 996736365#7 996736365#8 276017789#0 276017789#1 276017789#2 276017789#3 276017789#4 276017789#5 276017789#6 276017789#7 276017789#8 276017789#9 276017789#10 476941534#0 476941534#1 476941534#2 476941534#3 476941533#0 476941533#1 476941533#2 476941533#3 476941533#4 476941533#5 476941533#6 476941533#7 476941533#8 476941533#9 476941533#10 288396025#0 288396025#1 288396025#2 288396025#3 288396025#4 288396025#5 -1011048896 -5055846 -1011048898"/>
    </vehicle>
    <vehicle id="18" depart="360.00">
        <route edges="-5066515#3 5066515#3 5066515#4 133434836#0 -133434836#0 1011056827#0 1011056827#1 4757948#0 -4757947#3 -418711637#3 -418711637#2 -418711637#1 -418711637#0 -25482947 442264623#0 442264623#1 442264623#2 4290457#8"/>
    </vehicle>
    <vehicle id="19" depart="380.00">
        <route edges="-323174976#0 323175003#4 153751707#0 153751707#1 153751707#2 153751707#3 153751707#4 153751707#5 -4757950#8 -4757950#7 -4757950#6 -4757950#5 -4757950#4 -4757950#3 -4757950#2 -4757950#1 -4757950#0 4757949#0 4757949#1 4757949#2 4757949#3 4757949#4 4757949#5 4757949#6 4757949#7 4757949#8 4757949#9 4757949#10 4757949#11 1011056827#0 1011056827#1 4757948#0 -133434849 -55060427#1 -55060427#0 -476944854#1 -476944854#0 -288396025#18 -288396025#17 -288396025#16 -288396025#15 -288396025#14 -288396025#13 26425717#1 26425717#2 26425717#3 26425717#4 476254575 476254574 476254571"/>
    </vehicle>
    <vehicle id="20" depart="400.00">
        <route edges="-153751670#0 153751670#0 153751669#0 153751669#1 26741709#1 26741709#2 26741709#3 26741709#4 26741709#5 26741709#6 -479259119#1 -479259119#0 -737188338#1 -737188338#0 -26741710#1 -26741710#0 -566881424#2 -566881424#1 -566881424#0 230601391#0 230601391#1 230601391#2 230601391#3 476949274#0 476949274#1 262004666 614162727 131239196 711584205 132165965 476046132#0 476046132#1 476046132#2 -476046138 476046138"/>
    </vehicle>
    <vehicle id="21" depart="420.00">
        <route edges="1292997429 1011145575#0 1011145575#1 1011145574#0 -1011145574#0 -1011145575#1 -1011145575#0 -1292997429 -25924602#2 -25924602#1 -25924602#0 -1292997428#8 -1292997428#7 -1292997428#6 -1292997428#5 -1292997428#4 -1292997428#3 -1292997428#2 -1292997428#1 -1292997428#0 -1011145577#1 -1011145577#0 4290463#0 4290463#1 4290463#2 476628402 380679313 1011871289#0 1011871289#1 1011871290 4290467#0 4290467#1 4290467#2 -25865163#2 -25865163#1 -25865163#0 -1202430694#4 1202430694#4 25865163#0"/>
    </vehicle>
    <vehicle id="22" depart="440.00">
        <route edges="-275868701#5 -275868701#4 -275868701#3 -275868701#2 -275868701#1 -275868701#0 275868701#0 275868701#1 275868701#2 275868701#3 275868701#4 275868701#5 275868701#6 275868701#7 275868701#8 275868701#9 275868701#10 275868701#11 275868701#12 996736365#0 996736365#1 996736365#2 996736365#3 996736365#4 996736365#5 996736365#6 996736365#7 996736365#8 276017789#0 276017789#1 276017789#2 276017789#3 276017789#4 276017789#5 276017789#6 276017789#7 276017789#8 276017789#9 276017789#10 476941534#0 476941534#1 476941534#2 476941534#3 476941533#0 476941533#1 476941533#2 476941533#3 476941533#4 476941533#5 476941533#6 476941533#7 476941533#8 476941533#9 476941533#10 288396025#0 288396025#1 288396025#2 288396025#3 288396025#4 288396025#5 288396025#6 288396025#7 288396025#8 288396025#9 288396025#10 288396025#11 288396025#12 288396025#13 288396025#14 288396025#15 288396025#16 288396025#17 288396025#18 476944854#0 476944854#1 -476944855#1 -476944855#0"/>
    </vehicle>
    <vehicle id="23" depart="460.00">
        <route edges="-1011048897 -5055844#2 -5055844#1 -5055844#0 1010357576#0 1010357576#1 1010357576#2 1010357576#3 1010357575 288396025#4 288396025#5 288396025#6 288396025#7 288396025#8 288396025#9 288396025#10 288396025#11 276149817#2 476255693 476255676 4290461#0 4290461#1 476280067 476280068#0 476280068#1 476265006 380679311#0 479170513#0"/>
    </vehicle>
    <vehicle id="24" depart="480.00">
        <route edges="-476941533#0 -476941534#3 -476941534#2 -476941534#1 -476941534#0 -25865164#1 -25865164#0 -476941532 -25865163#7 -25865163#6 -25865163#5 -25865163#4 -25865163#3 -25865163#2 -25865163#1 -25865163#0 -1202430694#4 -1202430694#3 -1202430694#2 -1202430694#1 -1202430694#0 -476255673 -476255681 -442264621 -442264623#5 -442264623#4 -442264623#3 -442264623#2 -442264623#1 -442264623#0 476944852 442264627#0 442264627#1 476944850#0 476944850#1 476944850#2 476944847#0 476944847#1 476944847#2 1106519395#0 1106519395#1 24456971#0 24456971#1 476949275#0 476949275#1 262004666 614162727 131239196 711584205 132165965 476046132#0 476046132#1 476046132#2 1229215656 422072376#0 422072376#1 422072375 -422072375 -422072376#1 -422072376#0"/>
    </vehicle>
    <vehicle id="25" depart="500.00">
        <route edges="1011145573 1011145572#0 -1011145572#0 -1011145573 -1011145574#1 -1011145574#0 -1011145575#1 -1011145575#0 -1292997429 -25924602#2 -25924602#1 -25924602#0 -1292997428#8 -1292997428#7 -1292997428#6 -1292997428#5 -1292997428#4 -1292997428#3 -1292997428#2 -1292997428#1 -1292997428#0 -1011145577#1 -1011145577#0 4418533#0 4418533#1 380679312 476280069 476280068#0 476280068#1 476265006 380679311#0 380679311#1 380679311#2 -217438160#2 -217438160#1 -217438160#0 -476944848#1 -476944848#0 -476944849 -4290459#2 -4290459#1 -4290459#0 -476944850#2 -476944850#1 -476944850#0 -442264627#1 -442264627#0 4290456 1013122853"/>
    </vehicle>
    <vehicle id="26" depart="520.00">
        <route edges="86579822 1013898546 -1013898546 -86579822 86579823 1290821780 7969626#0 7969626#1 4757949#6 4757949#7 4757949#8 4757949#9 4757949#10 4757949#11 1011056827#0 1011056827#1 4757948#0 -4757947#3 -418711637#3 -418711637#2 -418711637#1 -418711637#0 -25482947 442264623#0 442264623#1 442264623#2 442264623#3 442264623#4 442264623#5 442264621 476255681 476255673 1202430694#0 1202430694#1 1202430694#2 1202430694#3 1202430694#4 25865163#0 25865163#1 25865163#2 25865163#3 25865163#4 -1009411563"/>
    </vehicle>
    <vehicle id="27" depart="540.00">
        <route edges="-1202430694#0 -476255673 -476255681 -442264621 -442264623#5 -442264623#4 -442264623#3 -442264623#2 -442264623#1 -442264623#0 25482947 418711637#0 418711637#1 418711637#2 418711637#3 4757947#3 -4757948#0 -1011056827#1 -1011056827#0 -4757949#11 -4757949#10 -4757949#9 -4757949#8 -4757949#7 -4757949#6 -4757949#5 -4757949#4 -4757949#3 -4757949#2 -4757949#1 -4757949#0 4757950#0 4757950#1 4757950#2 4757950#3 4757950#4 4757950#5 4757950#6 4757950#7 4757950#8 4757950#9 4757950#10 4757950#11 4757950#12 4757950#13 1292997444#0 1292997444#1 1292997444#2 -942447107 -942447108"/>
    </vehicle>
    <vehicle id="28" depart="560.00">
        <route edges="-153751669#0 153751669#0 153751669#1 26741709#1 26741709#2 26741709#3 26741709#4 26741709#5 26741709#6 -479259119#1 -479259119#0 -737188338#1 -737188338#0 -26741710#1 -26741710#0 -566881424#2 -566881424#1 -566881424#0 -943473686 -185565003#1 -185565003#0 -1293791184 -276148849#1 -276148849#0 -1293791185#2 -1293791185#1 -1293791185#0 -1293791186 -1293791187 -1293791189#1 -1293791189#0 -1293791188 -60949089#1 -60949089#0 -1293791191 -1293791190 -1293791193 -1293791192 -1293791194 -475877417 -1293791197#1 -1293791197#0 -475877419 -1293791198#1 -153751719#5 -153751719#4 -153751719#3 -153751719#2 -153751719#1 153751372"/>
    </vehicle>
    <vehicle id="29" depart="580.00">
        <route edges="153750975#0 153750975#1 153750975#2 153750975#3 1010819198 1010819203#0 1010819203#1 -422072375 -422072376#1 -422072376#0 -1229215656 -476046138 -476046141#2 -476046141#1 -476046141#0 -939040303 -758742682 -4757890#2 -4757890#1 -4757890#0 -1010771765#1 -1010771765#0 -4757889#1 -4757889#0 -1010771766#1 -1010771766#0 -4757888#4 4757893#0"/>
    </vehicle>
    <vehicle id="30" depart="600.00">
        <route edges="-1010357578#0 -4290821#2 -4290821#1 -4290821#0 25865163#2 -4290467#2"/>
    </vehicle>
    <vehicle id="31" depart="620.00">
        <route edges="1293791189#0 1293791189#1 -60592866 60592865#0 60592865#1 230601390 26741711#0 26741711#1 26741711#2 26741711#3 26741711#4 26741711#5 737188338#0 737188338#1 479259119#0 479259119#1 276148851 185565009 185565010#0 185565010#1 185565010#2 185565010#3 479259737 275810359 4700037 1096513570 257838722 131680882 153751348 737187601 211848136#0 211848136#1 480372301 966009654 275867911 60641695 438082909 132165960 566159489 566159488#0 -153751388#2 -153751388#1 -153751388#0"/>
    </vehicle>
    <vehicle id="32" depart="640.00">
        <route edges="-7910037#0 -4757949#7 -4757949#6 -4757949#5 -4758173#3 -4758173#2 -4758173#1 -4758173#0 217438147#1 403543529 -1010771769#1 -1010771769#0 -1010771768#1 -1010771768#0 -1010771770 -1010771771#1 -1010771771#0 -4757905#4 -4757905#3 -4757905#2 -4757905#1 -4757905#0 711584206#1 24456971#0 24456971#1 476949275#0 476949275#1 -476949274#1 -476949274#0 -230601391#3 -230601391#2 -230601391#1 -230601391#0 -943473686 -185565003#1 -185565003#0 -1293791184 1293791184 185565003#0"/>
    </vehicle>
    <vehicle id="33" depart="660.00">
        <route edges="-27749556#2 -27749556#1 -27749556#0 -25865163#3 -25865163#2 -25865163#1 -25865163#0 -1202430694#4 -1202430694#3 -1202430694#2 -1202430694#1 -1202430694#0 -476255673 -476255681 -442264621 -442264623#5 -442264623#4 -442264623#3 -442264623#2 -442264623#1 -442264623#0 -374384808#6 -374384808#5 -374384808#4 -374384808#3 -374384808#2 -374384808#1 -374384808#0 -476944855#1 -476944855#0 -476944856 -476944857#2 -476944857#1 -476944857#0 -476944858 -415301040#1 -415301040#0 -336588950#2 -336588950#1 336588950#1"/>
    </vehicle>
    <vehicle id="34" depart="680.00">
        <route edges="403543529 -1010771769#1 -1010771769#0 -217438141#1 -217438141#0 1011049328#0 1011049328#1 4757947#0 4757947#1 4757947#2 -418711637#3 -418711637#2 -418711637#1 -418711637#0 -25482947 442264623#0 442264623#1 442264623#2 442264623#3 442264623#4 442264623#5 442264621 476255681 476255673 1202430694#0 1202430694#1 1202430694#2 1202430694#3 1202430694#4 25865163#0 25865163#1 25865163#2 25865163#3 25865163#4 25865163#5 25865163#6 25865163#7 476941532 25865164#0 25865164#1 -276017789#10 -276017789#9 -276017789#8 -276017789#7 -276017789#6 -276017789#5 -276017789#4 -276017789#3 -276017789#2 -276017789#1 -276017789#0 276017789#0"/>
    </vehicle>
    <vehicle id="35" depart="700.00">
        <route edges="-442264623#4 -442264623#3 442264623#3 442264623#4 442264623#5 442264621 476255681 476255676 4290461#0 4290461#1 476280067 476280066 26741709#0 26741709#1 26741709#2 26741709#3 26741709#4 26741709#5 26741709#6 276148851 185565009 185565010#0 185565010#1 185565010#2 185565010#3 479259737 275810359 4700037 1096513570 257838722 131680882 153751348 737187601 211848136#0 211848136#1 480372301 966009654 275867911 60641695 -60641695 -275867911 60641712 60641734 476083651 277281621 475896810#0 475896810#1 1011856171 153751340 -153751338#3 -153751338#2 -153751338#1 -153751338#0"/>
    </vehicle>
    <vehicle id="36" depart="720.00">
        <route edges="-288396024#1 -288396024#0 288396025#0 288396025#1 288396025#2 -5059543#3 -5059543#2 -5059543#1 -5059543#0 -1010357574#3 -1010357574#2 -25401402#4 -25401402#3 -25401402#2 -25401402#1 -25401402#0 -476254558#1"/>
    </vehicle>
    <vehicle id="37" depart="740.00">
        <route edges="-4758191#1 4758191#1 4758191#2 1013122851 476944853 -476944852 442264623#0 442264623#1 442264623#2 -4290457#7 -4290457#6 4290457#6"/>
    </vehicle>
    <vehicle id="38" depart="760.00">
        <route edges="-4757902 -4757950#6 -4757950#5 -4757950#4 -4757950#3 -4757950#2 -4757950#1 -4757950#0 133434843#0 133434843#1 133434843#2 133434843#3 133434843#4 217438147#0 217438147#1 403543529 -1010771769#1 -1010771769#0 -217438141#1 -217438141#0 -4290460#5 -4290460#4 -4290460#3 -4290460#2 -4290460#1 -4290460#0 4290459#0 4290459#1 4290459#2 476944849 -476944849 -4290459#2 -4290459#1 -4290459#0"/>
    </vehicle>
    <vehicle id="39" depart="780.00">
        <route edges="-5055876#0 5055876#0 5055876#1 25401402#1 -5055878"/>
    </vehicle>
    <vehicle id="40" depart="800.00">
        <route edges="-133434843#4 -133434843#3 -133434843#2 -133434843#1 -133434843#0 4757949#0 4757949#1 4757949#2 4757949#3 4757949#4 -4758173#3 4758160"/>
    </vehicle>
    <vehicle id="41" depart="820.00">
        <route edges="-153751384#1 -153751384#0 153751517 -153751630 -4794588#0 -1010464548#1 -1010464548#0 275868701#9 275868701#10 275868701#11 275868701#12 996736365#0 996736365#1 996736365#2 996736365#3 996736365#4 996736365#5 996736365#6 996736365#7 996736365#8 276017789#0 276017789#1 276017789#2 276017789#3 276017789#4 276017789#5 276017789#6 276017789#7 276017789#8 276017789#9 276017789#10 476941534#0 476941534#1 476941534#2 476941534#3 476941533#0 476941533#1 476941533#2 476941533#3 476941533#4 476941533#5 476941533#6 476941533#7 476941533#8 476941533#9 476941533#10 288396025#0 288396025#1 288396025#2 288396025#3 288396025#4 288396025#5 288396025#6 288396025#7 288396025#8 288396025#9 288396025#10 288396025#11 288396025#12 288396025#13 288396025#14 288396025#15 -288396025#15 -288396025#14"/>
    </vehicle>
    <vehicle id="42" depart="840.00">
        <route edges="-288396025#12 276149817#2 476255693 476255676 4290461#0 4290461#1 476280067 476280066 26741709#0 26741709#1 26741709#2 26741709#3 26741709#4 26741709#5 26741709#6 276148851 185565009 185565010#0 185565010#1 185565010#2 185565010#3 479259737 60592869 26741711#0 26741711#1 26741711#2 26741711#3"/>
    </vehicle>
    <vehicle id="43" depart="860.00">
        <route edges="476254567 476254561 276149817#0 276149817#1 276149817#2 476255693 476255676 4290461#0 4290461#1 476280067 476280066 26741709#0 26741709#1 26741709#2 26741709#3 26741709#4 26741709#5 26741709#6 -479259119#1 -479259119#0"/>
    </vehicle>
    <vehicle id="44" depart="880.00">
        <route edges="782538993#1 782538993#0 149012573 -153751505#6 -153751505#5 -153751505#4 -153751505#3 153751719#2 153751719#3 153751719#4 153751719#5 1293791198#1 475877419 1293791197#0 1293791197#1 475877417 1293791194 1293791192 1293791193 1293791190 1293791191 60949089#0 60949089#1 1293791188 1293791189#0 1293791189#1 -60592866 60592865#0 60592865#1 230601390 26741711#0 26741711#1 26741711#2 26741711#3 26741711#4 26741711#5 737188338#0"/>
    </vehicle>
    <vehicle id="45" depart="900.00">
        <route edges="141710497#1 1011144739#1 460667716 476083651 277281621 475896810#0 475896810#1 1011856171 275867912 477472956#0 477472956#1 477472957 477472951#0 477472951#1 422072378#0 422072378#1 477472937 1293791199 475877420 1293791195 1293791196#0 1293791196#1 475877418 -1293791197#1 -1293791197#0 -475877419 -1293791198#1 -1293791198#0 -1296311592 -422072374#2 153751227#0 153751227#1 -153750994#1 -153750994#0"/>
    </vehicle>
    <vehicle id="46" depart="920.00">
        <route edges="-1293791199 1293791199 475877420 1293791195 1293791196#0 1293791196#1 475877418 -1293791197#1 -1293791197#0 -475877419 -1293791198#1 -1293791198#0 -1296311592 -422072374#2 -422072374#1 -422072374#0 -1296311588 -1296311587 -1296311586 -1296311585 -1296311583 -1296311584 -1296311582 -1296311581 -1296311580#1 -1296311580#0 -422072375 -422072376#1 -422072376#0 -1229215656 -476046138 -476046141#2 -476046141#1 -476046141#0 -939040303 -758742682 -4757890#2 -4757890#1 -4757890#0 -1010771765#1 -1010771765#0 -4757889#1 -4757889#0 -1010771766#1 -1010771766#0 -4757888#4 -4757888#3 -4757888#2 -4757888#1 -4757888#0 -403543529 -217438147#1 4758173#0 4758173#1 4758173#2 4758173#3 4757949#5 4757949#6 4757949#7 4757949#8 4757949#9 4757949#10 4757949#11 133434836#0 133434836#1"/>
    </vehicle>
    <vehicle id="47" depart="940.00">
        <route edges="1010403484#1 1010403483 996736365#5 996736365#6 996736365#7 996736365#8 276017789#0 276017789#1 276017789#2 276017789#3 276017789#4 276017789#5 276017789#6 276017789#7 276017789#8 276017789#9 276017789#10 -25865164#1 -25865164#0 -476941532 -25865163#7 -25865163#6 -25865163#5"/>
    </vehicle>
    <vehicle id="48" depart="960.00">
        <route edges="4290461#0 4290461#1 476280067 476280066 26741709#0 26741709#1 26741709#2 26741709#3 26741709#4 26741709#5 26741709#6 -479259119#1 -479259119#0 -737188338#1 -737188338#0 -26741710#1 -26741710#0 -566881424#2 -566881424#1 -566881424#0 230601391#0 230601391#1 230601391#2 230601391#3 476949274#0 476949274#1 262004666 614162727 131239196 711584205 132165965 476046132#0 476046132#1 476046132#2 -476046138 -476046141#2 -476046141#1 -476046141#0 -939040303 -758742682 -939015334"/>
    </vehicle>
    <vehicle id="49" depart="980.00">
        <route edges="-25821550 996736365#4 996736365#5 996736365#6 996736365#7 996736365#8 276017789#0 276017789#1 276017789#2 276017789#3 276017789#4 276017789#5 276017789#6 276017789#7 276017789#8 276017789#9 276017789#10 -25865164#1 -25865164#0 -476941532 -25865163#7 -25865163#6 -25865163#5 -25865163#4 -25865163#3 -25865163#2 -25865163#1 -25865163#0 -1202430694#4 -1202430694#3 -1202430694#2 -1202430694#1 -1202430694#0 -476255673 -476255681 -442264621 -442264623#5 -442264623#4 -442264623#3 -442264623#2 -442264623#1 -442264623#0 25482947 418711637#0 418711637#1 418711637#2 418711637#3 4757947#3 -4757948#0 -1011056827#1 -1011056827#0 -4757949#11 -4757949#10 -4757949#9 -4757949#8 -4757949#7 -4757949#6 -4757949#5 -4757949#4 -4757949#3 -4757949#2 -4757949#1 -4757949#0 133434843#0 133434843#1 133434843#2 133434843#3 133434843#4 217438147#0"/>
    </vehicle>
</routes>
